
#======================================================================
# CRYSTAL DATA
#----------------------------------------------------------------------
data_VESTA_phase_1

_chemical_name_common                  'Li Mn2 O4'
_cell_length_a                         41.225(6)
_cell_length_b                         41.225(6)
_cell_length_c                         41.225(6)
_cell_angle_alpha                      90.000000
_cell_angle_beta                       90.000000
_cell_angle_gamma                      90.000000
_cell_volume                           70061.905486
_space_group_name_H-M_alt              'F d -3 m'
_space_group_IT_number                 227

loop_
_space_group_symop_operation_xyz
   'x, y, z'
   '-x, -y, -z'
   '-x+0.15, -y+0.05, z+0.1'
   'x+0.05, y+0.15, -z+0.1'
   '-x+0.05, y+0.1, -z+0.15'
   'x+0.15, -y+0.1, z+0.05'
   'x+0.1, -y+0.15, -z+0.05'
   '-x+0.1, y+0.05, z+0.15'
   'z, x, y'
   '-z, -x, -y'
   'z+0.1, -x+0.15, -y+0.05'
   '-z+0.1, x+0.05, y+0.15'
   '-z+0.15, -x+0.05, y+0.1'
   'z+0.05, x+0.15, -y+0.1'
   '-z+0.05, x+0.1, -y+0.15'
   'z+0.15, -x+0.1, y+0.05'
   'y, z, x'
   '-y, -z, -x'
   '-y+0.05, z+0.1, -x+0.15'
   'y+0.15, -z+0.1, x+0.05'
   'y+0.1, -z+0.15, -x+0.05'
   '-y+0.1, z+0.05, x+0.15'
   '-y+0.15, -z+0.05, x+0.1'
   'y+0.05, z+0.15, -x+0.1'
   'y+0.15, x+0.05, -z+0.1'
   '-y+0.05, -x+0.15, z+0.1'
   '-y, -x, -z'
   'y, x, z'
   'y+0.05, -x+0.1, z+0.15'
   '-y+0.15, x+0.1, -z+0.05'
   '-y+0.1, x+0.15, z+0.05'
   'y+0.1, -x+0.05, -z+0.15'
   'x+0.15, z+0.05, -y+0.1'
   '-x+0.05, -z+0.15, y+0.1'
   '-x+0.1, z+0.15, y+0.05'
   'x+0.1, -z+0.05, -y+0.15'
   '-x, -z, -y'
   'x, z, y'
   'x+0.05, -z+0.1, y+0.15'
   '-x+0.15, z+0.1, -y+0.05'
   'z+0.15, y+0.05, -x+0.1'
   '-z+0.05, -y+0.15, x+0.1'
   'z+0.05, -y+0.1, x+0.15'
   '-z+0.15, y+0.1, -x+0.05'
   '-z+0.1, y+0.15, x+0.05'
   'z+0.1, -y+0.05, -x+0.15'
   '-z, -y, -x'
   'z, y, x'
   'x, y+0.1, z+0.1'
   '-x, -y+0.1, -z+0.1'
   '-x+0.15, -y+0.15, z'
   'x+0.05, y+0.05, -z'
   '-x+0.05, y, -z+0.05'
   'x+0.15, -y, z+0.15'
   'x+0.1, -y+0.05, -z+0.15'
   '-x+0.1, y+0.15, z+0.05'
   'z, x+0.1, y+0.1'
   '-z, -x+0.1, -y+0.1'
   'z+0.1, -x+0.05, -y+0.15'
   '-z+0.1, x+0.15, y+0.05'
   '-z+0.15, -x+0.15, y'
   'z+0.05, x+0.05, -y'
   '-z+0.05, x, -y+0.05'
   'z+0.15, -x, y+0.15'
   'y, z+0.1, x+0.1'
   '-y, -z+0.1, -x+0.1'
   '-y+0.05, z, -x+0.05'
   'y+0.15, -z, x+0.15'
   'y+0.1, -z+0.05, -x+0.15'
   '-y+0.1, z+0.15, x+0.05'
   '-y+0.15, -z+0.15, x'
   'y+0.05, z+0.05, -x'
   'y+0.15, x+0.15, -z'
   '-y+0.05, -x+0.05, z'
   '-y, -x+0.1, -z+0.1'
   'y, x+0.1, z+0.1'
   'y+0.05, -x, z+0.05'
   '-y+0.15, x, -z+0.15'
   '-y+0.1, x+0.05, z+0.15'
   'y+0.1, -x+0.15, -z+0.05'
   'x+0.15, z+0.15, -y'
   '-x+0.05, -z+0.05, y'
   '-x+0.1, z+0.05, y+0.15'
   'x+0.1, -z+0.15, -y+0.05'
   '-x, -z+0.1, -y+0.1'
   'x, z+0.1, y+0.1'
   'x+0.05, -z, y+0.05'
   '-x+0.15, z, -y+0.15'
   'z+0.15, y+0.15, -x'
   '-z+0.05, -y+0.05, x'
   'z+0.05, -y, x+0.05'
   '-z+0.15, y, -x+0.15'
   '-z+0.1, y+0.05, x+0.15'
   'z+0.1, -y+0.15, -x+0.05'
   '-z, -y+0.1, -x+0.1'
   'z, y+0.1, x+0.1'
   'x+0.1, y, z+0.1'
   '-x+0.1, -y, -z+0.1'
   '-x+0.05, -y+0.05, z'
   'x+0.15, y+0.15, -z'
   '-x+0.15, y+0.1, -z+0.05'
   'x+0.05, -y+0.1, z+0.15'
   'x, -y+0.15, -z+0.15'
   '-x, y+0.05, z+0.05'
   'z+0.1, x, y+0.1'
   '-z+0.1, -x, -y+0.1'
   'z, -x+0.15, -y+0.15'
   '-z, x+0.05, y+0.05'
   '-z+0.05, -x+0.05, y'
   'z+0.15, x+0.15, -y'
   '-z+0.15, x+0.1, -y+0.05'
   'z+0.05, -x+0.1, y+0.15'
   'y+0.1, z, x+0.1'
   '-y+0.1, -z, -x+0.1'
   '-y+0.15, z+0.1, -x+0.05'
   'y+0.05, -z+0.1, x+0.15'
   'y, -z+0.15, -x+0.15'
   '-y, z+0.05, x+0.05'
   '-y+0.05, -z+0.05, x'
   'y+0.15, z+0.15, -x'
   'y+0.05, x+0.05, -z'
   '-y+0.15, -x+0.15, z'
   '-y+0.1, -x, -z+0.1'
   'y+0.1, x, z+0.1'
   'y+0.15, -x+0.1, z+0.05'
   '-y+0.05, x+0.1, -z+0.15'
   '-y, x+0.15, z+0.15'
   'y, -x+0.05, -z+0.05'
   'x+0.05, z+0.05, -y'
   '-x+0.15, -z+0.15, y'
   '-x, z+0.15, y+0.15'
   'x, -z+0.05, -y+0.05'
   '-x+0.1, -z, -y+0.1'
   'x+0.1, z, y+0.1'
   'x+0.15, -z+0.1, y+0.05'
   '-x+0.05, z+0.1, -y+0.15'
   'z+0.05, y+0.05, -x'
   '-z+0.15, -y+0.15, x'
   'z+0.15, -y+0.1, x+0.05'
   '-z+0.05, y+0.1, -x+0.15'
   '-z, y+0.15, x+0.15'
   'z, -y+0.05, -x+0.05'
   '-z+0.1, -y, -x+0.1'
   'z+0.1, y, x+0.1'
   'x+0.1, y+0.1, z'
   '-x+0.1, -y+0.1, -z'
   '-x+0.05, -y+0.15, z+0.1'
   'x+0.15, y+0.05, -z+0.1'
   '-x+0.15, y, -z+0.15'
   'x+0.05, -y, z+0.05'
   'x, -y+0.05, -z+0.05'
   '-x, y+0.15, z+0.15'
   'z+0.1, x+0.1, y'
   '-z+0.1, -x+0.1, -y'
   'z, -x+0.05, -y+0.05'
   '-z, x+0.15, y+0.15'
   '-z+0.05, -x+0.15, y+0.1'
   'z+0.15, x+0.05, -y+0.1'
   '-z+0.15, x, -y+0.15'
   'z+0.05, -x, y+0.05'
   'y+0.1, z+0.1, x'
   '-y+0.1, -z+0.1, -x'
   '-y+0.15, z, -x+0.15'
   'y+0.05, -z, x+0.05'
   'y, -z+0.05, -x+0.05'
   '-y, z+0.15, x+0.15'
   '-y+0.05, -z+0.15, x+0.1'
   'y+0.15, z+0.05, -x+0.1'
   'y+0.05, x+0.15, -z+0.1'
   '-y+0.15, -x+0.05, z+0.1'
   '-y+0.1, -x+0.1, -z'
   'y+0.1, x+0.1, z'
   'y+0.15, -x, z+0.15'
   '-y+0.05, x, -z+0.05'
   '-y, x+0.05, z+0.05'
   'y, -x+0.15, -z+0.15'
   'x+0.05, z+0.15, -y+0.1'
   '-x+0.15, -z+0.05, y+0.1'
   '-x, z+0.05, y+0.05'
   'x, -z+0.15, -y+0.15'
   '-x+0.1, -z+0.1, -y'
   'x+0.1, z+0.1, y'
   'x+0.15, -z, y+0.15'
   '-x+0.05, z, -y+0.05'
   'z+0.05, y+0.15, -x+0.1'
   '-z+0.15, -y+0.05, x+0.1'
   'z+0.15, -y, x+0.15'
   '-z+0.05, y, -x+0.05'
   '-z, y+0.05, x+0.05'
   'z, -y+0.15, -x+0.15'
   '-z+0.1, -y+0.1, -x'
   'z+0.1, y+0.1, x'
   'x, y, z+0.2'
   '-x, -y, -z+0.8'
   '-x+0.15, -y+0.05, z+0.3'
   'x+0.05, y+0.15, -z+0.9'
   '-x+0.05, y+0.1, -z+0.95'
   'x+0.15, -y+0.1, z+1/4'
   'x+0.1, -y+0.15, -z+0.85'
   '-x+0.1, y+0.05, z+0.35'
   'z+0.2, x, y'
   '-z+0.8, -x, -y'
   'z+0.3, -x+0.15, -y+0.05'
   '-z+0.9, x+0.05, y+0.15'
   '-z+0.95, -x+0.05, y+0.1'
   'z+1/4, x+0.15, -y+0.1'
   '-z+0.85, x+0.1, -y+0.15'
   'z+0.35, -x+0.1, y+0.05'
   'y, z+0.2, x'
   '-y, -z+0.8, -x'
   '-y+0.05, z+0.3, -x+0.15'
   'y+0.15, -z+0.9, x+0.05'
   'y+0.1, -z+0.95, -x+0.05'
   '-y+0.1, z+1/4, x+0.15'
   '-y+0.15, -z+0.85, x+0.1'
   'y+0.05, z+0.35, -x+0.1'
   'y+0.15, x+0.05, -z+0.9'
   '-y+0.05, -x+0.15, z+0.3'
   '-y, -x, -z+0.8'
   'y, x, z+0.2'
   'y+0.05, -x+0.1, z+0.35'
   '-y+0.15, x+0.1, -z+0.85'
   '-y+0.1, x+0.15, z+1/4'
   'y+0.1, -x+0.05, -z+0.95'
   'x+0.15, z+1/4, -y+0.1'
   '-x+0.05, -z+0.95, y+0.1'
   '-x+0.1, z+0.35, y+0.05'
   'x+0.1, -z+0.85, -y+0.15'
   '-x, -z+0.8, -y'
   'x, z+0.2, y'
   'x+0.05, -z+0.9, y+0.15'
   '-x+0.15, z+0.3, -y+0.05'
   'z+0.35, y+0.05, -x+0.1'
   '-z+0.85, -y+0.15, x+0.1'
   'z+1/4, -y+0.1, x+0.15'
   '-z+0.95, y+0.1, -x+0.05'
   '-z+0.9, y+0.15, x+0.05'
   'z+0.3, -y+0.05, -x+0.15'
   '-z+0.8, -y, -x'
   'z+0.2, y, x'
   'x, y+0.1, z+0.3'
   '-x, -y+0.1, -z+0.9'
   '-x+0.15, -y+0.15, z+0.2'
   'x+0.05, y+0.05, -z+0.8'
   '-x+0.05, y, -z+0.85'
   'x+0.15, -y, z+0.35'
   'x+0.1, -y+0.05, -z+0.95'
   '-x+0.1, y+0.15, z+1/4'
   'z+0.2, x+0.1, y+0.1'
   '-z+0.8, -x+0.1, -y+0.1'
   'z+0.3, -x+0.05, -y+0.15'
   '-z+0.9, x+0.15, y+0.05'
   '-z+0.95, -x+0.15, y'
   'z+1/4, x+0.05, -y'
   '-z+0.85, x, -y+0.05'
   'z+0.35, -x, y+0.15'
   'y, z+0.3, x+0.1'
   '-y, -z+0.9, -x+0.1'
   '-y+0.05, z+0.2, -x+0.05'
   'y+0.15, -z+0.8, x+0.15'
   'y+0.1, -z+0.85, -x+0.15'
   '-y+0.1, z+0.35, x+0.05'
   '-y+0.15, -z+0.95, x'
   'y+0.05, z+1/4, -x'
   'y+0.15, x+0.15, -z+0.8'
   '-y+0.05, -x+0.05, z+0.2'
   '-y, -x+0.1, -z+0.9'
   'y, x+0.1, z+0.3'
   'y+0.05, -x, z+1/4'
   '-y+0.15, x, -z+0.95'
   '-y+0.1, x+0.05, z+0.35'
   'y+0.1, -x+0.15, -z+0.85'
   'x+0.15, z+0.35, -y'
   '-x+0.05, -z+0.85, y'
   '-x+0.1, z+1/4, y+0.15'
   'x+0.1, -z+0.95, -y+0.05'
   '-x, -z+0.9, -y+0.1'
   'x, z+0.3, y+0.1'
   'x+0.05, -z+0.8, y+0.05'
   '-x+0.15, z+0.2, -y+0.15'
   'z+0.35, y+0.15, -x'
   '-z+0.85, -y+0.05, x'
   'z+1/4, -y, x+0.05'
   '-z+0.95, y, -x+0.15'
   '-z+0.9, y+0.05, x+0.15'
   'z+0.3, -y+0.15, -x+0.05'
   '-z+0.8, -y+0.1, -x+0.1'
   'z+0.2, y+0.1, x+0.1'
   'x+0.1, y, z+0.3'
   '-x+0.1, -y, -z+0.9'
   '-x+0.05, -y+0.05, z+0.2'
   'x+0.15, y+0.15, -z+0.8'
   '-x+0.15, y+0.1, -z+0.85'
   'x+0.05, -y+0.1, z+0.35'
   'x, -y+0.15, -z+0.95'
   '-x, y+0.05, z+1/4'
   'z+0.3, x, y+0.1'
   '-z+0.9, -x, -y+0.1'
   'z+0.2, -x+0.15, -y+0.15'
   '-z+0.8, x+0.05, y+0.05'
   '-z+0.85, -x+0.05, y'
   'z+0.35, x+0.15, -y'
   '-z+0.95, x+0.1, -y+0.05'
   'z+1/4, -x+0.1, y+0.15'
   'y+0.1, z+0.2, x+0.1'
   '-y+0.1, -z+0.8, -x+0.1'
   '-y+0.15, z+0.3, -x+0.05'
   'y+0.05, -z+0.9, x+0.15'
   'y, -z+0.95, -x+0.15'
   '-y, z+1/4, x+0.05'
   '-y+0.05, -z+0.85, x'
   'y+0.15, z+0.35, -x'
   'y+0.05, x+0.05, -z+0.8'
   '-y+0.15, -x+0.15, z+0.2'
   '-y+0.1, -x, -z+0.9'
   'y+0.1, x, z+0.3'
   'y+0.15, -x+0.1, z+1/4'
   '-y+0.05, x+0.1, -z+0.95'
   '-y, x+0.15, z+0.35'
   'y, -x+0.05, -z+0.85'
   'x+0.05, z+1/4, -y'
   '-x+0.15, -z+0.95, y'
   '-x, z+0.35, y+0.15'
   'x, -z+0.85, -y+0.05'
   '-x+0.1, -z+0.8, -y+0.1'
   'x+0.1, z+0.2, y+0.1'
   'x+0.15, -z+0.9, y+0.05'
   '-x+0.05, z+0.3, -y+0.15'
   'z+1/4, y+0.05, -x'
   '-z+0.95, -y+0.15, x'
   'z+0.35, -y+0.1, x+0.05'
   '-z+0.85, y+0.1, -x+0.15'
   '-z+0.8, y+0.15, x+0.15'
   'z+0.2, -y+0.05, -x+0.05'
   '-z+0.9, -y, -x+0.1'
   'z+0.3, y, x+0.1'
   'x+0.1, y+0.1, z+0.2'
   '-x+0.1, -y+0.1, -z+0.8'
   '-x+0.05, -y+0.15, z+0.3'
   'x+0.15, y+0.05, -z+0.9'
   '-x+0.15, y, -z+0.95'
   'x+0.05, -y, z+1/4'
   'x, -y+0.05, -z+0.85'
   '-x, y+0.15, z+0.35'
   'z+0.3, x+0.1, y'
   '-z+0.9, -x+0.1, -y'
   'z+0.2, -x+0.05, -y+0.05'
   '-z+0.8, x+0.15, y+0.15'
   '-z+0.85, -x+0.15, y+0.1'
   'z+0.35, x+0.05, -y+0.1'
   '-z+0.95, x, -y+0.15'
   'z+1/4, -x, y+0.05'
   'y+0.1, z+0.3, x'
   '-y+0.1, -z+0.9, -x'
   '-y+0.15, z+0.2, -x+0.15'
   'y+0.05, -z+0.8, x+0.05'
   'y, -z+0.85, -x+0.05'
   '-y, z+0.35, x+0.15'
   '-y+0.05, -z+0.95, x+0.1'
   'y+0.15, z+1/4, -x+0.1'
   'y+0.05, x+0.15, -z+0.9'
   '-y+0.15, -x+0.05, z+0.3'
   '-y+0.1, -x+0.1, -z+0.8'
   'y+0.1, x+0.1, z+0.2'
   'y+0.15, -x, z+0.35'
   '-y+0.05, x, -z+0.85'
   '-y, x+0.05, z+1/4'
   'y, -x+0.15, -z+0.95'
   'x+0.05, z+0.35, -y+0.1'
   '-x+0.15, -z+0.85, y+0.1'
   '-x, z+1/4, y+0.05'
   'x, -z+0.95, -y+0.15'
   '-x+0.1, -z+0.9, -y'
   'x+0.1, z+0.3, y'
   'x+0.15, -z+0.8, y+0.15'
   '-x+0.05, z+0.2, -y+0.05'
   'z+1/4, y+0.15, -x+0.1'
   '-z+0.95, -y+0.05, x+0.1'
   'z+0.35, -y, x+0.15'
   '-z+0.85, y, -x+0.05'
   '-z+0.8, y+0.05, x+0.05'
   'z+0.2, -y+0.15, -x+0.15'
   '-z+0.9, -y+0.1, -x'
   'z+0.3, y+0.1, x'
   'x, y, z+0.4'
   '-x, -y, -z+0.6'
   '-x+0.15, -y+0.05, z+1/2'
   'x+0.05, y+0.15, -z+0.7'
   '-x+0.05, y+0.1, -z+3/4'
   'x+0.15, -y+0.1, z+0.45'
   'x+0.1, -y+0.15, -z+0.65'
   '-x+0.1, y+0.05, z+0.55'
   'z+0.4, x, y'
   '-z+0.6, -x, -y'
   'z+1/2, -x+0.15, -y+0.05'
   '-z+0.7, x+0.05, y+0.15'
   '-z+3/4, -x+0.05, y+0.1'
   'z+0.45, x+0.15, -y+0.1'
   '-z+0.65, x+0.1, -y+0.15'
   'z+0.55, -x+0.1, y+0.05'
   'y, z+0.4, x'
   '-y, -z+0.6, -x'
   '-y+0.05, z+1/2, -x+0.15'
   'y+0.15, -z+0.7, x+0.05'
   'y+0.1, -z+3/4, -x+0.05'
   '-y+0.1, z+0.45, x+0.15'
   '-y+0.15, -z+0.65, x+0.1'
   'y+0.05, z+0.55, -x+0.1'
   'y+0.15, x+0.05, -z+0.7'
   '-y+0.05, -x+0.15, z+1/2'
   '-y, -x, -z+0.6'
   'y, x, z+0.4'
   'y+0.05, -x+0.1, z+0.55'
   '-y+0.15, x+0.1, -z+0.65'
   '-y+0.1, x+0.15, z+0.45'
   'y+0.1, -x+0.05, -z+3/4'
   'x+0.15, z+0.45, -y+0.1'
   '-x+0.05, -z+3/4, y+0.1'
   '-x+0.1, z+0.55, y+0.05'
   'x+0.1, -z+0.65, -y+0.15'
   '-x, -z+0.6, -y'
   'x, z+0.4, y'
   'x+0.05, -z+0.7, y+0.15'
   '-x+0.15, z+1/2, -y+0.05'
   'z+0.55, y+0.05, -x+0.1'
   '-z+0.65, -y+0.15, x+0.1'
   'z+0.45, -y+0.1, x+0.15'
   '-z+3/4, y+0.1, -x+0.05'
   '-z+0.7, y+0.15, x+0.05'
   'z+1/2, -y+0.05, -x+0.15'
   '-z+0.6, -y, -x'
   'z+0.4, y, x'
   'x, y+0.1, z+1/2'
   '-x, -y+0.1, -z+0.7'
   '-x+0.15, -y+0.15, z+0.4'
   'x+0.05, y+0.05, -z+0.6'
   '-x+0.05, y, -z+0.65'
   'x+0.15, -y, z+0.55'
   'x+0.1, -y+0.05, -z+3/4'
   '-x+0.1, y+0.15, z+0.45'
   'z+0.4, x+0.1, y+0.1'
   '-z+0.6, -x+0.1, -y+0.1'
   'z+1/2, -x+0.05, -y+0.15'
   '-z+0.7, x+0.15, y+0.05'
   '-z+3/4, -x+0.15, y'
   'z+0.45, x+0.05, -y'
   '-z+0.65, x, -y+0.05'
   'z+0.55, -x, y+0.15'
   'y, z+1/2, x+0.1'
   '-y, -z+0.7, -x+0.1'
   '-y+0.05, z+0.4, -x+0.05'
   'y+0.15, -z+0.6, x+0.15'
   'y+0.1, -z+0.65, -x+0.15'
   '-y+0.1, z+0.55, x+0.05'
   '-y+0.15, -z+3/4, x'
   'y+0.05, z+0.45, -x'
   'y+0.15, x+0.15, -z+0.6'
   '-y+0.05, -x+0.05, z+0.4'
   '-y, -x+0.1, -z+0.7'
   'y, x+0.1, z+1/2'
   'y+0.05, -x, z+0.45'
   '-y+0.15, x, -z+3/4'
   '-y+0.1, x+0.05, z+0.55'
   'y+0.1, -x+0.15, -z+0.65'
   'x+0.15, z+0.55, -y'
   '-x+0.05, -z+0.65, y'
   '-x+0.1, z+0.45, y+0.15'
   'x+0.1, -z+3/4, -y+0.05'
   '-x, -z+0.7, -y+0.1'
   'x, z+1/2, y+0.1'
   'x+0.05, -z+0.6, y+0.05'
   '-x+0.15, z+0.4, -y+0.15'
   'z+0.55, y+0.15, -x'
   '-z+0.65, -y+0.05, x'
   'z+0.45, -y, x+0.05'
   '-z+3/4, y, -x+0.15'
   '-z+0.7, y+0.05, x+0.15'
   'z+1/2, -y+0.15, -x+0.05'
   '-z+0.6, -y+0.1, -x+0.1'
   'z+0.4, y+0.1, x+0.1'
   'x+0.1, y, z+1/2'
   '-x+0.1, -y, -z+0.7'
   '-x+0.05, -y+0.05, z+0.4'
   'x+0.15, y+0.15, -z+0.6'
   '-x+0.15, y+0.1, -z+0.65'
   'x+0.05, -y+0.1, z+0.55'
   'x, -y+0.15, -z+3/4'
   '-x, y+0.05, z+0.45'
   'z+1/2, x, y+0.1'
   '-z+0.7, -x, -y+0.1'
   'z+0.4, -x+0.15, -y+0.15'
   '-z+0.6, x+0.05, y+0.05'
   '-z+0.65, -x+0.05, y'
   'z+0.55, x+0.15, -y'
   '-z+3/4, x+0.1, -y+0.05'
   'z+0.45, -x+0.1, y+0.15'
   'y+0.1, z+0.4, x+0.1'
   '-y+0.1, -z+0.6, -x+0.1'
   '-y+0.15, z+1/2, -x+0.05'
   'y+0.05, -z+0.7, x+0.15'
   'y, -z+3/4, -x+0.15'
   '-y, z+0.45, x+0.05'
   '-y+0.05, -z+0.65, x'
   'y+0.15, z+0.55, -x'
   'y+0.05, x+0.05, -z+0.6'
   '-y+0.15, -x+0.15, z+0.4'
   '-y+0.1, -x, -z+0.7'
   'y+0.1, x, z+1/2'
   'y+0.15, -x+0.1, z+0.45'
   '-y+0.05, x+0.1, -z+3/4'
   '-y, x+0.15, z+0.55'
   'y, -x+0.05, -z+0.65'
   'x+0.05, z+0.45, -y'
   '-x+0.15, -z+3/4, y'
   '-x, z+0.55, y+0.15'
   'x, -z+0.65, -y+0.05'
   '-x+0.1, -z+0.6, -y+0.1'
   'x+0.1, z+0.4, y+0.1'
   'x+0.15, -z+0.7, y+0.05'
   '-x+0.05, z+1/2, -y+0.15'
   'z+0.45, y+0.05, -x'
   '-z+3/4, -y+0.15, x'
   'z+0.55, -y+0.1, x+0.05'
   '-z+0.65, y+0.1, -x+0.15'
   '-z+0.6, y+0.15, x+0.15'
   'z+0.4, -y+0.05, -x+0.05'
   '-z+0.7, -y, -x+0.1'
   'z+1/2, y, x+0.1'
   'x+0.1, y+0.1, z+0.4'
   '-x+0.1, -y+0.1, -z+0.6'
   '-x+0.05, -y+0.15, z+1/2'
   'x+0.15, y+0.05, -z+0.7'
   '-x+0.15, y, -z+3/4'
   'x+0.05, -y, z+0.45'
   'x, -y+0.05, -z+0.65'
   '-x, y+0.15, z+0.55'
   'z+1/2, x+0.1, y'
   '-z+0.7, -x+0.1, -y'
   'z+0.4, -x+0.05, -y+0.05'
   '-z+0.6, x+0.15, y+0.15'
   '-z+0.65, -x+0.15, y+0.1'
   'z+0.55, x+0.05, -y+0.1'
   '-z+3/4, x, -y+0.15'
   'z+0.45, -x, y+0.05'
   'y+0.1, z+1/2, x'
   '-y+0.1, -z+0.7, -x'
   '-y+0.15, z+0.4, -x+0.15'
   'y+0.05, -z+0.6, x+0.05'
   'y, -z+0.65, -x+0.05'
   '-y, z+0.55, x+0.15'
   '-y+0.05, -z+3/4, x+0.1'
   'y+0.15, z+0.45, -x+0.1'
   'y+0.05, x+0.15, -z+0.7'
   '-y+0.15, -x+0.05, z+1/2'
   '-y+0.1, -x+0.1, -z+0.6'
   'y+0.1, x+0.1, z+0.4'
   'y+0.15, -x, z+0.55'
   '-y+0.05, x, -z+0.65'
   '-y, x+0.05, z+0.45'
   'y, -x+0.15, -z+3/4'
   'x+0.05, z+0.55, -y+0.1'
   '-x+0.15, -z+0.65, y+0.1'
   '-x, z+0.45, y+0.05'
   'x, -z+3/4, -y+0.15'
   '-x+0.1, -z+0.7, -y'
   'x+0.1, z+1/2, y'
   'x+0.15, -z+0.6, y+0.15'
   '-x+0.05, z+0.4, -y+0.05'
   'z+0.45, y+0.15, -x+0.1'
   '-z+3/4, -y+0.05, x+0.1'
   'z+0.55, -y, x+0.15'
   '-z+0.65, y, -x+0.05'
   '-z+0.6, y+0.05, x+0.05'
   'z+0.4, -y+0.15, -x+0.15'
   '-z+0.7, -y+0.1, -x'
   'z+1/2, y+0.1, x'
   'x, y, z+0.6'
   '-x, -y, -z+0.4'
   '-x+0.15, -y+0.05, z+0.7'
   'x+0.05, y+0.15, -z+1/2'
   '-x+0.05, y+0.1, -z+0.55'
   'x+0.15, -y+0.1, z+0.65'
   'x+0.1, -y+0.15, -z+0.45'
   '-x+0.1, y+0.05, z+3/4'
   'z+0.6, x, y'
   '-z+0.4, -x, -y'
   'z+0.7, -x+0.15, -y+0.05'
   '-z+1/2, x+0.05, y+0.15'
   '-z+0.55, -x+0.05, y+0.1'
   'z+0.65, x+0.15, -y+0.1'
   '-z+0.45, x+0.1, -y+0.15'
   'z+3/4, -x+0.1, y+0.05'
   'y, z+0.6, x'
   '-y, -z+0.4, -x'
   '-y+0.05, z+0.7, -x+0.15'
   'y+0.15, -z+1/2, x+0.05'
   'y+0.1, -z+0.55, -x+0.05'
   '-y+0.1, z+0.65, x+0.15'
   '-y+0.15, -z+0.45, x+0.1'
   'y+0.05, z+3/4, -x+0.1'
   'y+0.15, x+0.05, -z+1/2'
   '-y+0.05, -x+0.15, z+0.7'
   '-y, -x, -z+0.4'
   'y, x, z+0.6'
   'y+0.05, -x+0.1, z+3/4'
   '-y+0.15, x+0.1, -z+0.45'
   '-y+0.1, x+0.15, z+0.65'
   'y+0.1, -x+0.05, -z+0.55'
   'x+0.15, z+0.65, -y+0.1'
   '-x+0.05, -z+0.55, y+0.1'
   '-x+0.1, z+3/4, y+0.05'
   'x+0.1, -z+0.45, -y+0.15'
   '-x, -z+0.4, -y'
   'x, z+0.6, y'
   'x+0.05, -z+1/2, y+0.15'
   '-x+0.15, z+0.7, -y+0.05'
   'z+3/4, y+0.05, -x+0.1'
   '-z+0.45, -y+0.15, x+0.1'
   'z+0.65, -y+0.1, x+0.15'
   '-z+0.55, y+0.1, -x+0.05'
   '-z+1/2, y+0.15, x+0.05'
   'z+0.7, -y+0.05, -x+0.15'
   '-z+0.4, -y, -x'
   'z+0.6, y, x'
   'x, y+0.1, z+0.7'
   '-x, -y+0.1, -z+1/2'
   '-x+0.15, -y+0.15, z+0.6'
   'x+0.05, y+0.05, -z+0.4'
   '-x+0.05, y, -z+0.45'
   'x+0.15, -y, z+3/4'
   'x+0.1, -y+0.05, -z+0.55'
   '-x+0.1, y+0.15, z+0.65'
   'z+0.6, x+0.1, y+0.1'
   '-z+0.4, -x+0.1, -y+0.1'
   'z+0.7, -x+0.05, -y+0.15'
   '-z+1/2, x+0.15, y+0.05'
   '-z+0.55, -x+0.15, y'
   'z+0.65, x+0.05, -y'
   '-z+0.45, x, -y+0.05'
   'z+3/4, -x, y+0.15'
   'y, z+0.7, x+0.1'
   '-y, -z+1/2, -x+0.1'
   '-y+0.05, z+0.6, -x+0.05'
   'y+0.15, -z+0.4, x+0.15'
   'y+0.1, -z+0.45, -x+0.15'
   '-y+0.1, z+3/4, x+0.05'
   '-y+0.15, -z+0.55, x'
   'y+0.05, z+0.65, -x'
   'y+0.15, x+0.15, -z+0.4'
   '-y+0.05, -x+0.05, z+0.6'
   '-y, -x+0.1, -z+1/2'
   'y, x+0.1, z+0.7'
   'y+0.05, -x, z+0.65'
   '-y+0.15, x, -z+0.55'
   '-y+0.1, x+0.05, z+3/4'
   'y+0.1, -x+0.15, -z+0.45'
   'x+0.15, z+3/4, -y'
   '-x+0.05, -z+0.45, y'
   '-x+0.1, z+0.65, y+0.15'
   'x+0.1, -z+0.55, -y+0.05'
   '-x, -z+1/2, -y+0.1'
   'x, z+0.7, y+0.1'
   'x+0.05, -z+0.4, y+0.05'
   '-x+0.15, z+0.6, -y+0.15'
   'z+3/4, y+0.15, -x'
   '-z+0.45, -y+0.05, x'
   'z+0.65, -y, x+0.05'
   '-z+0.55, y, -x+0.15'
   '-z+1/2, y+0.05, x+0.15'
   'z+0.7, -y+0.15, -x+0.05'
   '-z+0.4, -y+0.1, -x+0.1'
   'z+0.6, y+0.1, x+0.1'
   'x+0.1, y, z+0.7'
   '-x+0.1, -y, -z+1/2'
   '-x+0.05, -y+0.05, z+0.6'
   'x+0.15, y+0.15, -z+0.4'
   '-x+0.15, y+0.1, -z+0.45'
   'x+0.05, -y+0.1, z+3/4'
   'x, -y+0.15, -z+0.55'
   '-x, y+0.05, z+0.65'
   'z+0.7, x, y+0.1'
   '-z+1/2, -x, -y+0.1'
   'z+0.6, -x+0.15, -y+0.15'
   '-z+0.4, x+0.05, y+0.05'
   '-z+0.45, -x+0.05, y'
   'z+3/4, x+0.15, -y'
   '-z+0.55, x+0.1, -y+0.05'
   'z+0.65, -x+0.1, y+0.15'
   'y+0.1, z+0.6, x+0.1'
   '-y+0.1, -z+0.4, -x+0.1'
   '-y+0.15, z+0.7, -x+0.05'
   'y+0.05, -z+1/2, x+0.15'
   'y, -z+0.55, -x+0.15'
   '-y, z+0.65, x+0.05'
   '-y+0.05, -z+0.45, x'
   'y+0.15, z+3/4, -x'
   'y+0.05, x+0.05, -z+0.4'
   '-y+0.15, -x+0.15, z+0.6'
   '-y+0.1, -x, -z+1/2'
   'y+0.1, x, z+0.7'
   'y+0.15, -x+0.1, z+0.65'
   '-y+0.05, x+0.1, -z+0.55'
   '-y, x+0.15, z+3/4'
   'y, -x+0.05, -z+0.45'
   'x+0.05, z+0.65, -y'
   '-x+0.15, -z+0.55, y'
   '-x, z+3/4, y+0.15'
   'x, -z+0.45, -y+0.05'
   '-x+0.1, -z+0.4, -y+0.1'
   'x+0.1, z+0.6, y+0.1'
   'x+0.15, -z+1/2, y+0.05'
   '-x+0.05, z+0.7, -y+0.15'
   'z+0.65, y+0.05, -x'
   '-z+0.55, -y+0.15, x'
   'z+3/4, -y+0.1, x+0.05'
   '-z+0.45, y+0.1, -x+0.15'
   '-z+0.4, y+0.15, x+0.15'
   'z+0.6, -y+0.05, -x+0.05'
   '-z+1/2, -y, -x+0.1'
   'z+0.7, y, x+0.1'
   'x+0.1, y+0.1, z+0.6'
   '-x+0.1, -y+0.1, -z+0.4'
   '-x+0.05, -y+0.15, z+0.7'
   'x+0.15, y+0.05, -z+1/2'
   '-x+0.15, y, -z+0.55'
   'x+0.05, -y, z+0.65'
   'x, -y+0.05, -z+0.45'
   '-x, y+0.15, z+3/4'
   'z+0.7, x+0.1, y'
   '-z+1/2, -x+0.1, -y'
   'z+0.6, -x+0.05, -y+0.05'
   '-z+0.4, x+0.15, y+0.15'
   '-z+0.45, -x+0.15, y+0.1'
   'z+3/4, x+0.05, -y+0.1'
   '-z+0.55, x, -y+0.15'
   'z+0.65, -x, y+0.05'
   'y+0.1, z+0.7, x'
   '-y+0.1, -z+1/2, -x'
   '-y+0.15, z+0.6, -x+0.15'
   'y+0.05, -z+0.4, x+0.05'
   'y, -z+0.45, -x+0.05'
   '-y, z+3/4, x+0.15'
   '-y+0.05, -z+0.55, x+0.1'
   'y+0.15, z+0.65, -x+0.1'
   'y+0.05, x+0.15, -z+1/2'
   '-y+0.15, -x+0.05, z+0.7'
   '-y+0.1, -x+0.1, -z+0.4'
   'y+0.1, x+0.1, z+0.6'
   'y+0.15, -x, z+3/4'
   '-y+0.05, x, -z+0.45'
   '-y, x+0.05, z+0.65'
   'y, -x+0.15, -z+0.55'
   'x+0.05, z+3/4, -y+0.1'
   '-x+0.15, -z+0.45, y+0.1'
   '-x, z+0.65, y+0.05'
   'x, -z+0.55, -y+0.15'
   '-x+0.1, -z+1/2, -y'
   'x+0.1, z+0.7, y'
   'x+0.15, -z+0.4, y+0.15'
   '-x+0.05, z+0.6, -y+0.05'
   'z+0.65, y+0.15, -x+0.1'
   '-z+0.55, -y+0.05, x+0.1'
   'z+3/4, -y, x+0.15'
   '-z+0.45, y, -x+0.05'
   '-z+0.4, y+0.05, x+0.05'
   'z+0.6, -y+0.15, -x+0.15'
   '-z+1/2, -y+0.1, -x'
   'z+0.7, y+0.1, x'
   'x, y, z+0.8'
   '-x, -y, -z+0.2'
   '-x+0.15, -y+0.05, z+0.9'
   'x+0.05, y+0.15, -z+0.3'
   '-x+0.05, y+0.1, -z+0.35'
   'x+0.15, -y+0.1, z+0.85'
   'x+0.1, -y+0.15, -z+1/4'
   '-x+0.1, y+0.05, z+0.95'
   'z+0.8, x, y'
   '-z+0.2, -x, -y'
   'z+0.9, -x+0.15, -y+0.05'
   '-z+0.3, x+0.05, y+0.15'
   '-z+0.35, -x+0.05, y+0.1'
   'z+0.85, x+0.15, -y+0.1'
   '-z+1/4, x+0.1, -y+0.15'
   'z+0.95, -x+0.1, y+0.05'
   'y, z+0.8, x'
   '-y, -z+0.2, -x'
   '-y+0.05, z+0.9, -x+0.15'
   'y+0.15, -z+0.3, x+0.05'
   'y+0.1, -z+0.35, -x+0.05'
   '-y+0.1, z+0.85, x+0.15'
   '-y+0.15, -z+1/4, x+0.1'
   'y+0.05, z+0.95, -x+0.1'
   'y+0.15, x+0.05, -z+0.3'
   '-y+0.05, -x+0.15, z+0.9'
   '-y, -x, -z+0.2'
   'y, x, z+0.8'
   'y+0.05, -x+0.1, z+0.95'
   '-y+0.15, x+0.1, -z+1/4'
   '-y+0.1, x+0.15, z+0.85'
   'y+0.1, -x+0.05, -z+0.35'
   'x+0.15, z+0.85, -y+0.1'
   '-x+0.05, -z+0.35, y+0.1'
   '-x+0.1, z+0.95, y+0.05'
   'x+0.1, -z+1/4, -y+0.15'
   '-x, -z+0.2, -y'
   'x, z+0.8, y'
   'x+0.05, -z+0.3, y+0.15'
   '-x+0.15, z+0.9, -y+0.05'
   'z+0.95, y+0.05, -x+0.1'
   '-z+1/4, -y+0.15, x+0.1'
   'z+0.85, -y+0.1, x+0.15'
   '-z+0.35, y+0.1, -x+0.05'
   '-z+0.3, y+0.15, x+0.05'
   'z+0.9, -y+0.05, -x+0.15'
   '-z+0.2, -y, -x'
   'z+0.8, y, x'
   'x, y+0.1, z+0.9'
   '-x, -y+0.1, -z+0.3'
   '-x+0.15, -y+0.15, z+0.8'
   'x+0.05, y+0.05, -z+0.2'
   '-x+0.05, y, -z+1/4'
   'x+0.15, -y, z+0.95'
   'x+0.1, -y+0.05, -z+0.35'
   '-x+0.1, y+0.15, z+0.85'
   'z+0.8, x+0.1, y+0.1'
   '-z+0.2, -x+0.1, -y+0.1'
   'z+0.9, -x+0.05, -y+0.15'
   '-z+0.3, x+0.15, y+0.05'
   '-z+0.35, -x+0.15, y'
   'z+0.85, x+0.05, -y'
   '-z+1/4, x, -y+0.05'
   'z+0.95, -x, y+0.15'
   'y, z+0.9, x+0.1'
   '-y, -z+0.3, -x+0.1'
   '-y+0.05, z+0.8, -x+0.05'
   'y+0.15, -z+0.2, x+0.15'
   'y+0.1, -z+1/4, -x+0.15'
   '-y+0.1, z+0.95, x+0.05'
   '-y+0.15, -z+0.35, x'
   'y+0.05, z+0.85, -x'
   'y+0.15, x+0.15, -z+0.2'
   '-y+0.05, -x+0.05, z+0.8'
   '-y, -x+0.1, -z+0.3'
   'y, x+0.1, z+0.9'
   'y+0.05, -x, z+0.85'
   '-y+0.15, x, -z+0.35'
   '-y+0.1, x+0.05, z+0.95'
   'y+0.1, -x+0.15, -z+1/4'
   'x+0.15, z+0.95, -y'
   '-x+0.05, -z+1/4, y'
   '-x+0.1, z+0.85, y+0.15'
   'x+0.1, -z+0.35, -y+0.05'
   '-x, -z+0.3, -y+0.1'
   'x, z+0.9, y+0.1'
   'x+0.05, -z+0.2, y+0.05'
   '-x+0.15, z+0.8, -y+0.15'
   'z+0.95, y+0.15, -x'
   '-z+1/4, -y+0.05, x'
   'z+0.85, -y, x+0.05'
   '-z+0.35, y, -x+0.15'
   '-z+0.3, y+0.05, x+0.15'
   'z+0.9, -y+0.15, -x+0.05'
   '-z+0.2, -y+0.1, -x+0.1'
   'z+0.8, y+0.1, x+0.1'
   'x+0.1, y, z+0.9'
   '-x+0.1, -y, -z+0.3'
   '-x+0.05, -y+0.05, z+0.8'
   'x+0.15, y+0.15, -z+0.2'
   '-x+0.15, y+0.1, -z+1/4'
   'x+0.05, -y+0.1, z+0.95'
   'x, -y+0.15, -z+0.35'
   '-x, y+0.05, z+0.85'
   'z+0.9, x, y+0.1'
   '-z+0.3, -x, -y+0.1'
   'z+0.8, -x+0.15, -y+0.15'
   '-z+0.2, x+0.05, y+0.05'
   '-z+1/4, -x+0.05, y'
   'z+0.95, x+0.15, -y'
   '-z+0.35, x+0.1, -y+0.05'
   'z+0.85, -x+0.1, y+0.15'
   'y+0.1, z+0.8, x+0.1'
   '-y+0.1, -z+0.2, -x+0.1'
   '-y+0.15, z+0.9, -x+0.05'
   'y+0.05, -z+0.3, x+0.15'
   'y, -z+0.35, -x+0.15'
   '-y, z+0.85, x+0.05'
   '-y+0.05, -z+1/4, x'
   'y+0.15, z+0.95, -x'
   'y+0.05, x+0.05, -z+0.2'
   '-y+0.15, -x+0.15, z+0.8'
   '-y+0.1, -x, -z+0.3'
   'y+0.1, x, z+0.9'
   'y+0.15, -x+0.1, z+0.85'
   '-y+0.05, x+0.1, -z+0.35'
   '-y, x+0.15, z+0.95'
   'y, -x+0.05, -z+1/4'
   'x+0.05, z+0.85, -y'
   '-x+0.15, -z+0.35, y'
   '-x, z+0.95, y+0.15'
   'x, -z+1/4, -y+0.05'
   '-x+0.1, -z+0.2, -y+0.1'
   'x+0.1, z+0.8, y+0.1'
   'x+0.15, -z+0.3, y+0.05'
   '-x+0.05, z+0.9, -y+0.15'
   'z+0.85, y+0.05, -x'
   '-z+0.35, -y+0.15, x'
   'z+0.95, -y+0.1, x+0.05'
   '-z+1/4, y+0.1, -x+0.15'
   '-z+0.2, y+0.15, x+0.15'
   'z+0.8, -y+0.05, -x+0.05'
   '-z+0.3, -y, -x+0.1'
   'z+0.9, y, x+0.1'
   'x+0.1, y+0.1, z+0.8'
   '-x+0.1, -y+0.1, -z+0.2'
   '-x+0.05, -y+0.15, z+0.9'
   'x+0.15, y+0.05, -z+0.3'
   '-x+0.15, y, -z+0.35'
   'x+0.05, -y, z+0.85'
   'x, -y+0.05, -z+1/4'
   '-x, y+0.15, z+0.95'
   'z+0.9, x+0.1, y'
   '-z+0.3, -x+0.1, -y'
   'z+0.8, -x+0.05, -y+0.05'
   '-z+0.2, x+0.15, y+0.15'
   '-z+1/4, -x+0.15, y+0.1'
   'z+0.95, x+0.05, -y+0.1'
   '-z+0.35, x, -y+0.15'
   'z+0.85, -x, y+0.05'
   'y+0.1, z+0.9, x'
   '-y+0.1, -z+0.3, -x'
   '-y+0.15, z+0.8, -x+0.15'
   'y+0.05, -z+0.2, x+0.05'
   'y, -z+1/4, -x+0.05'
   '-y, z+0.95, x+0.15'
   '-y+0.05, -z+0.35, x+0.1'
   'y+0.15, z+0.85, -x+0.1'
   'y+0.05, x+0.15, -z+0.3'
   '-y+0.15, -x+0.05, z+0.9'
   '-y+0.1, -x+0.1, -z+0.2'
   'y+0.1, x+0.1, z+0.8'
   'y+0.15, -x, z+0.95'
   '-y+0.05, x, -z+1/4'
   '-y, x+0.05, z+0.85'
   'y, -x+0.15, -z+0.35'
   'x+0.05, z+0.95, -y+0.1'
   '-x+0.15, -z+1/4, y+0.1'
   '-x, z+0.85, y+0.05'
   'x, -z+0.35, -y+0.15'
   '-x+0.1, -z+0.3, -y'
   'x+0.1, z+0.9, y'
   'x+0.15, -z+0.2, y+0.15'
   '-x+0.05, z+0.8, -y+0.05'
   'z+0.85, y+0.15, -x+0.1'
   '-z+0.35, -y+0.05, x+0.1'
   'z+0.95, -y, x+0.15'
   '-z+1/4, y, -x+0.05'
   '-z+0.2, y+0.05, x+0.05'
   'z+0.8, -y+0.15, -x+0.15'
   '-z+0.3, -y+0.1, -x'
   'z+0.9, y+0.1, x'
   'x, y+0.2, z'
   '-x, -y+0.8, -z'
   '-x+0.15, -y+0.85, z+0.1'
   'x+0.05, y+0.35, -z+0.1'
   '-x+0.05, y+0.3, -z+0.15'
   'x+0.15, -y+0.9, z+0.05'
   'x+0.1, -y+0.95, -z+0.05'
   '-x+0.1, y+1/4, z+0.15'
   'z, x, y+0.2'
   '-z, -x, -y+0.8'
   'z+0.1, -x+0.15, -y+0.85'
   '-z+0.1, x+0.05, y+0.35'
   '-z+0.15, -x+0.05, y+0.3'
   'z+0.05, x+0.15, -y+0.9'
   '-z+0.05, x+0.1, -y+0.95'
   'z+0.15, -x+0.1, y+1/4'
   'y+0.2, z, x'
   '-y+0.8, -z, -x'
   '-y+0.85, z+0.1, -x+0.15'
   'y+0.35, -z+0.1, x+0.05'
   'y+0.3, -z+0.15, -x+0.05'
   '-y+0.9, z+0.05, x+0.15'
   '-y+0.95, -z+0.05, x+0.1'
   'y+1/4, z+0.15, -x+0.1'
   'y+0.35, x+0.05, -z+0.1'
   '-y+0.85, -x+0.15, z+0.1'
   '-y+0.8, -x, -z'
   'y+0.2, x, z'
   'y+1/4, -x+0.1, z+0.15'
   '-y+0.95, x+0.1, -z+0.05'
   '-y+0.9, x+0.15, z+0.05'
   'y+0.3, -x+0.05, -z+0.15'
   'x+0.15, z+0.05, -y+0.9'
   '-x+0.05, -z+0.15, y+0.3'
   '-x+0.1, z+0.15, y+1/4'
   'x+0.1, -z+0.05, -y+0.95'
   '-x, -z, -y+0.8'
   'x, z, y+0.2'
   'x+0.05, -z+0.1, y+0.35'
   '-x+0.15, z+0.1, -y+0.85'
   'z+0.15, y+1/4, -x+0.1'
   '-z+0.05, -y+0.95, x+0.1'
   'z+0.05, -y+0.9, x+0.15'
   '-z+0.15, y+0.3, -x+0.05'
   '-z+0.1, y+0.35, x+0.05'
   'z+0.1, -y+0.85, -x+0.15'
   '-z, -y+0.8, -x'
   'z, y+0.2, x'
   'x, y+0.3, z+0.1'
   '-x, -y+0.9, -z+0.1'
   '-x+0.15, -y+0.95, z'
   'x+0.05, y+1/4, -z'
   '-x+0.05, y+0.2, -z+0.05'
   'x+0.15, -y+0.8, z+0.15'
   'x+0.1, -y+0.85, -z+0.15'
   '-x+0.1, y+0.35, z+0.05'
   'z, x+0.1, y+0.3'
   '-z, -x+0.1, -y+0.9'
   'z+0.1, -x+0.05, -y+0.95'
   '-z+0.1, x+0.15, y+1/4'
   '-z+0.15, -x+0.15, y+0.2'
   'z+0.05, x+0.05, -y+0.8'
   '-z+0.05, x, -y+0.85'
   'z+0.15, -x, y+0.35'
   'y+0.2, z+0.1, x+0.1'
   '-y+0.8, -z+0.1, -x+0.1'
   '-y+0.85, z, -x+0.05'
   'y+0.35, -z, x+0.15'
   'y+0.3, -z+0.05, -x+0.15'
   '-y+0.9, z+0.15, x+0.05'
   '-y+0.95, -z+0.15, x'
   'y+1/4, z+0.05, -x'
   'y+0.35, x+0.15, -z'
   '-y+0.85, -x+0.05, z'
   '-y+0.8, -x+0.1, -z+0.1'
   'y+0.2, x+0.1, z+0.1'
   'y+1/4, -x, z+0.05'
   '-y+0.95, x, -z+0.15'
   '-y+0.9, x+0.05, z+0.15'
   'y+0.3, -x+0.15, -z+0.05'
   'x+0.15, z+0.15, -y+0.8'
   '-x+0.05, -z+0.05, y+0.2'
   '-x+0.1, z+0.05, y+0.35'
   'x+0.1, -z+0.15, -y+0.85'
   '-x, -z+0.1, -y+0.9'
   'x, z+0.1, y+0.3'
   'x+0.05, -z, y+1/4'
   '-x+0.15, z, -y+0.95'
   'z+0.15, y+0.35, -x'
   '-z+0.05, -y+0.85, x'
   'z+0.05, -y+0.8, x+0.05'
   '-z+0.15, y+0.2, -x+0.15'
   '-z+0.1, y+1/4, x+0.15'
   'z+0.1, -y+0.95, -x+0.05'
   '-z, -y+0.9, -x+0.1'
   'z, y+0.3, x+0.1'
   'x+0.1, y+0.2, z+0.1'
   '-x+0.1, -y+0.8, -z+0.1'
   '-x+0.05, -y+0.85, z'
   'x+0.15, y+0.35, -z'
   '-x+0.15, y+0.3, -z+0.05'
   'x+0.05, -y+0.9, z+0.15'
   'x, -y+0.95, -z+0.15'
   '-x, y+1/4, z+0.05'
   'z+0.1, x, y+0.3'
   '-z+0.1, -x, -y+0.9'
   'z, -x+0.15, -y+0.95'
   '-z, x+0.05, y+1/4'
   '-z+0.05, -x+0.05, y+0.2'
   'z+0.15, x+0.15, -y+0.8'
   '-z+0.15, x+0.1, -y+0.85'
   'z+0.05, -x+0.1, y+0.35'
   'y+0.3, z, x+0.1'
   '-y+0.9, -z, -x+0.1'
   '-y+0.95, z+0.1, -x+0.05'
   'y+1/4, -z+0.1, x+0.15'
   'y+0.2, -z+0.15, -x+0.15'
   '-y+0.8, z+0.05, x+0.05'
   '-y+0.85, -z+0.05, x'
   'y+0.35, z+0.15, -x'
   'y+1/4, x+0.05, -z'
   '-y+0.95, -x+0.15, z'
   '-y+0.9, -x, -z+0.1'
   'y+0.3, x, z+0.1'
   'y+0.35, -x+0.1, z+0.05'
   '-y+0.85, x+0.1, -z+0.15'
   '-y+0.8, x+0.15, z+0.15'
   'y+0.2, -x+0.05, -z+0.05'
   'x+0.05, z+0.05, -y+0.8'
   '-x+0.15, -z+0.15, y+0.2'
   '-x, z+0.15, y+0.35'
   'x, -z+0.05, -y+0.85'
   '-x+0.1, -z, -y+0.9'
   'x+0.1, z, y+0.3'
   'x+0.15, -z+0.1, y+1/4'
   '-x+0.05, z+0.1, -y+0.95'
   'z+0.05, y+1/4, -x'
   '-z+0.15, -y+0.95, x'
   'z+0.15, -y+0.9, x+0.05'
   '-z+0.05, y+0.3, -x+0.15'
   '-z, y+0.35, x+0.15'
   'z, -y+0.85, -x+0.05'
   '-z+0.1, -y+0.8, -x+0.1'
   'z+0.1, y+0.2, x+0.1'
   'x+0.1, y+0.3, z'
   '-x+0.1, -y+0.9, -z'
   '-x+0.05, -y+0.95, z+0.1'
   'x+0.15, y+1/4, -z+0.1'
   '-x+0.15, y+0.2, -z+0.15'
   'x+0.05, -y+0.8, z+0.05'
   'x, -y+0.85, -z+0.05'
   '-x, y+0.35, z+0.15'
   'z+0.1, x+0.1, y+0.2'
   '-z+0.1, -x+0.1, -y+0.8'
   'z, -x+0.05, -y+0.85'
   '-z, x+0.15, y+0.35'
   '-z+0.05, -x+0.15, y+0.3'
   'z+0.15, x+0.05, -y+0.9'
   '-z+0.15, x, -y+0.95'
   'z+0.05, -x, y+1/4'
   'y+0.3, z+0.1, x'
   '-y+0.9, -z+0.1, -x'
   '-y+0.95, z, -x+0.15'
   'y+1/4, -z, x+0.05'
   'y+0.2, -z+0.05, -x+0.05'
   '-y+0.8, z+0.15, x+0.15'
   '-y+0.85, -z+0.15, x+0.1'
   'y+0.35, z+0.05, -x+0.1'
   'y+1/4, x+0.15, -z+0.1'
   '-y+0.95, -x+0.05, z+0.1'
   '-y+0.9, -x+0.1, -z'
   'y+0.3, x+0.1, z'
   'y+0.35, -x, z+0.15'
   '-y+0.85, x, -z+0.05'
   '-y+0.8, x+0.05, z+0.05'
   'y+0.2, -x+0.15, -z+0.15'
   'x+0.05, z+0.15, -y+0.9'
   '-x+0.15, -z+0.05, y+0.3'
   '-x, z+0.05, y+1/4'
   'x, -z+0.15, -y+0.95'
   '-x+0.1, -z+0.1, -y+0.8'
   'x+0.1, z+0.1, y+0.2'
   'x+0.15, -z, y+0.35'
   '-x+0.05, z, -y+0.85'
   'z+0.05, y+0.35, -x+0.1'
   '-z+0.15, -y+0.85, x+0.1'
   'z+0.15, -y+0.8, x+0.15'
   '-z+0.05, y+0.2, -x+0.05'
   '-z, y+1/4, x+0.05'
   'z, -y+0.95, -x+0.15'
   '-z+0.1, -y+0.9, -x'
   'z+0.1, y+0.3, x'
   'x, y+0.2, z+0.2'
   '-x, -y+0.8, -z+0.8'
   '-x+0.15, -y+0.85, z+0.3'
   'x+0.05, y+0.35, -z+0.9'
   '-x+0.05, y+0.3, -z+0.95'
   'x+0.15, -y+0.9, z+1/4'
   'x+0.1, -y+0.95, -z+0.85'
   '-x+0.1, y+1/4, z+0.35'
   'z+0.2, x, y+0.2'
   '-z+0.8, -x, -y+0.8'
   'z+0.3, -x+0.15, -y+0.85'
   '-z+0.9, x+0.05, y+0.35'
   '-z+0.95, -x+0.05, y+0.3'
   'z+1/4, x+0.15, -y+0.9'
   '-z+0.85, x+0.1, -y+0.95'
   'z+0.35, -x+0.1, y+1/4'
   'y+0.2, z+0.2, x'
   '-y+0.8, -z+0.8, -x'
   '-y+0.85, z+0.3, -x+0.15'
   'y+0.35, -z+0.9, x+0.05'
   'y+0.3, -z+0.95, -x+0.05'
   '-y+0.9, z+1/4, x+0.15'
   '-y+0.95, -z+0.85, x+0.1'
   'y+1/4, z+0.35, -x+0.1'
   'y+0.35, x+0.05, -z+0.9'
   '-y+0.85, -x+0.15, z+0.3'
   '-y+0.8, -x, -z+0.8'
   'y+0.2, x, z+0.2'
   'y+1/4, -x+0.1, z+0.35'
   '-y+0.95, x+0.1, -z+0.85'
   '-y+0.9, x+0.15, z+1/4'
   'y+0.3, -x+0.05, -z+0.95'
   'x+0.15, z+1/4, -y+0.9'
   '-x+0.05, -z+0.95, y+0.3'
   '-x+0.1, z+0.35, y+1/4'
   'x+0.1, -z+0.85, -y+0.95'
   '-x, -z+0.8, -y+0.8'
   'x, z+0.2, y+0.2'
   'x+0.05, -z+0.9, y+0.35'
   '-x+0.15, z+0.3, -y+0.85'
   'z+0.35, y+1/4, -x+0.1'
   '-z+0.85, -y+0.95, x+0.1'
   'z+1/4, -y+0.9, x+0.15'
   '-z+0.95, y+0.3, -x+0.05'
   '-z+0.9, y+0.35, x+0.05'
   'z+0.3, -y+0.85, -x+0.15'
   '-z+0.8, -y+0.8, -x'
   'z+0.2, y+0.2, x'
   'x, y+0.3, z+0.3'
   '-x, -y+0.9, -z+0.9'
   '-x+0.15, -y+0.95, z+0.2'
   'x+0.05, y+1/4, -z+0.8'
   '-x+0.05, y+0.2, -z+0.85'
   'x+0.15, -y+0.8, z+0.35'
   'x+0.1, -y+0.85, -z+0.95'
   '-x+0.1, y+0.35, z+1/4'
   'z+0.2, x+0.1, y+0.3'
   '-z+0.8, -x+0.1, -y+0.9'
   'z+0.3, -x+0.05, -y+0.95'
   '-z+0.9, x+0.15, y+1/4'
   '-z+0.95, -x+0.15, y+0.2'
   'z+1/4, x+0.05, -y+0.8'
   '-z+0.85, x, -y+0.85'
   'z+0.35, -x, y+0.35'
   'y+0.2, z+0.3, x+0.1'
   '-y+0.8, -z+0.9, -x+0.1'
   '-y+0.85, z+0.2, -x+0.05'
   'y+0.35, -z+0.8, x+0.15'
   'y+0.3, -z+0.85, -x+0.15'
   '-y+0.9, z+0.35, x+0.05'
   '-y+0.95, -z+0.95, x'
   'y+1/4, z+1/4, -x'
   'y+0.35, x+0.15, -z+0.8'
   '-y+0.85, -x+0.05, z+0.2'
   '-y+0.8, -x+0.1, -z+0.9'
   'y+0.2, x+0.1, z+0.3'
   'y+1/4, -x, z+1/4'
   '-y+0.95, x, -z+0.95'
   '-y+0.9, x+0.05, z+0.35'
   'y+0.3, -x+0.15, -z+0.85'
   'x+0.15, z+0.35, -y+0.8'
   '-x+0.05, -z+0.85, y+0.2'
   '-x+0.1, z+1/4, y+0.35'
   'x+0.1, -z+0.95, -y+0.85'
   '-x, -z+0.9, -y+0.9'
   'x, z+0.3, y+0.3'
   'x+0.05, -z+0.8, y+1/4'
   '-x+0.15, z+0.2, -y+0.95'
   'z+0.35, y+0.35, -x'
   '-z+0.85, -y+0.85, x'
   'z+1/4, -y+0.8, x+0.05'
   '-z+0.95, y+0.2, -x+0.15'
   '-z+0.9, y+1/4, x+0.15'
   'z+0.3, -y+0.95, -x+0.05'
   '-z+0.8, -y+0.9, -x+0.1'
   'z+0.2, y+0.3, x+0.1'
   'x+0.1, y+0.2, z+0.3'
   '-x+0.1, -y+0.8, -z+0.9'
   '-x+0.05, -y+0.85, z+0.2'
   'x+0.15, y+0.35, -z+0.8'
   '-x+0.15, y+0.3, -z+0.85'
   'x+0.05, -y+0.9, z+0.35'
   'x, -y+0.95, -z+0.95'
   '-x, y+1/4, z+1/4'
   'z+0.3, x, y+0.3'
   '-z+0.9, -x, -y+0.9'
   'z+0.2, -x+0.15, -y+0.95'
   '-z+0.8, x+0.05, y+1/4'
   '-z+0.85, -x+0.05, y+0.2'
   'z+0.35, x+0.15, -y+0.8'
   '-z+0.95, x+0.1, -y+0.85'
   'z+1/4, -x+0.1, y+0.35'
   'y+0.3, z+0.2, x+0.1'
   '-y+0.9, -z+0.8, -x+0.1'
   '-y+0.95, z+0.3, -x+0.05'
   'y+1/4, -z+0.9, x+0.15'
   'y+0.2, -z+0.95, -x+0.15'
   '-y+0.8, z+1/4, x+0.05'
   '-y+0.85, -z+0.85, x'
   'y+0.35, z+0.35, -x'
   'y+1/4, x+0.05, -z+0.8'
   '-y+0.95, -x+0.15, z+0.2'
   '-y+0.9, -x, -z+0.9'
   'y+0.3, x, z+0.3'
   'y+0.35, -x+0.1, z+1/4'
   '-y+0.85, x+0.1, -z+0.95'
   '-y+0.8, x+0.15, z+0.35'
   'y+0.2, -x+0.05, -z+0.85'
   'x+0.05, z+1/4, -y+0.8'
   '-x+0.15, -z+0.95, y+0.2'
   '-x, z+0.35, y+0.35'
   'x, -z+0.85, -y+0.85'
   '-x+0.1, -z+0.8, -y+0.9'
   'x+0.1, z+0.2, y+0.3'
   'x+0.15, -z+0.9, y+1/4'
   '-x+0.05, z+0.3, -y+0.95'
   'z+1/4, y+1/4, -x'
   '-z+0.95, -y+0.95, x'
   'z+0.35, -y+0.9, x+0.05'
   '-z+0.85, y+0.3, -x+0.15'
   '-z+0.8, y+0.35, x+0.15'
   'z+0.2, -y+0.85, -x+0.05'
   '-z+0.9, -y+0.8, -x+0.1'
   'z+0.3, y+0.2, x+0.1'
   'x+0.1, y+0.3, z+0.2'
   '-x+0.1, -y+0.9, -z+0.8'
   '-x+0.05, -y+0.95, z+0.3'
   'x+0.15, y+1/4, -z+0.9'
   '-x+0.15, y+0.2, -z+0.95'
   'x+0.05, -y+0.8, z+1/4'
   'x, -y+0.85, -z+0.85'
   '-x, y+0.35, z+0.35'
   'z+0.3, x+0.1, y+0.2'
   '-z+0.9, -x+0.1, -y+0.8'
   'z+0.2, -x+0.05, -y+0.85'
   '-z+0.8, x+0.15, y+0.35'
   '-z+0.85, -x+0.15, y+0.3'
   'z+0.35, x+0.05, -y+0.9'
   '-z+0.95, x, -y+0.95'
   'z+1/4, -x, y+1/4'
   'y+0.3, z+0.3, x'
   '-y+0.9, -z+0.9, -x'
   '-y+0.95, z+0.2, -x+0.15'
   'y+1/4, -z+0.8, x+0.05'
   'y+0.2, -z+0.85, -x+0.05'
   '-y+0.8, z+0.35, x+0.15'
   '-y+0.85, -z+0.95, x+0.1'
   'y+0.35, z+1/4, -x+0.1'
   'y+1/4, x+0.15, -z+0.9'
   '-y+0.95, -x+0.05, z+0.3'
   '-y+0.9, -x+0.1, -z+0.8'
   'y+0.3, x+0.1, z+0.2'
   'y+0.35, -x, z+0.35'
   '-y+0.85, x, -z+0.85'
   '-y+0.8, x+0.05, z+1/4'
   'y+0.2, -x+0.15, -z+0.95'
   'x+0.05, z+0.35, -y+0.9'
   '-x+0.15, -z+0.85, y+0.3'
   '-x, z+1/4, y+1/4'
   'x, -z+0.95, -y+0.95'
   '-x+0.1, -z+0.9, -y+0.8'
   'x+0.1, z+0.3, y+0.2'
   'x+0.15, -z+0.8, y+0.35'
   '-x+0.05, z+0.2, -y+0.85'
   'z+1/4, y+0.35, -x+0.1'
   '-z+0.95, -y+0.85, x+0.1'
   'z+0.35, -y+0.8, x+0.15'
   '-z+0.85, y+0.2, -x+0.05'
   '-z+0.8, y+1/4, x+0.05'
   'z+0.2, -y+0.95, -x+0.15'
   '-z+0.9, -y+0.9, -x'
   'z+0.3, y+0.3, x'
   'x, y+0.2, z+0.4'
   '-x, -y+0.8, -z+0.6'
   '-x+0.15, -y+0.85, z+1/2'
   'x+0.05, y+0.35, -z+0.7'
   '-x+0.05, y+0.3, -z+3/4'
   'x+0.15, -y+0.9, z+0.45'
   'x+0.1, -y+0.95, -z+0.65'
   '-x+0.1, y+1/4, z+0.55'
   'z+0.4, x, y+0.2'
   '-z+0.6, -x, -y+0.8'
   'z+1/2, -x+0.15, -y+0.85'
   '-z+0.7, x+0.05, y+0.35'
   '-z+3/4, -x+0.05, y+0.3'
   'z+0.45, x+0.15, -y+0.9'
   '-z+0.65, x+0.1, -y+0.95'
   'z+0.55, -x+0.1, y+1/4'
   'y+0.2, z+0.4, x'
   '-y+0.8, -z+0.6, -x'
   '-y+0.85, z+1/2, -x+0.15'
   'y+0.35, -z+0.7, x+0.05'
   'y+0.3, -z+3/4, -x+0.05'
   '-y+0.9, z+0.45, x+0.15'
   '-y+0.95, -z+0.65, x+0.1'
   'y+1/4, z+0.55, -x+0.1'
   'y+0.35, x+0.05, -z+0.7'
   '-y+0.85, -x+0.15, z+1/2'
   '-y+0.8, -x, -z+0.6'
   'y+0.2, x, z+0.4'
   'y+1/4, -x+0.1, z+0.55'
   '-y+0.95, x+0.1, -z+0.65'
   '-y+0.9, x+0.15, z+0.45'
   'y+0.3, -x+0.05, -z+3/4'
   'x+0.15, z+0.45, -y+0.9'
   '-x+0.05, -z+3/4, y+0.3'
   '-x+0.1, z+0.55, y+1/4'
   'x+0.1, -z+0.65, -y+0.95'
   '-x, -z+0.6, -y+0.8'
   'x, z+0.4, y+0.2'
   'x+0.05, -z+0.7, y+0.35'
   '-x+0.15, z+1/2, -y+0.85'
   'z+0.55, y+1/4, -x+0.1'
   '-z+0.65, -y+0.95, x+0.1'
   'z+0.45, -y+0.9, x+0.15'
   '-z+3/4, y+0.3, -x+0.05'
   '-z+0.7, y+0.35, x+0.05'
   'z+1/2, -y+0.85, -x+0.15'
   '-z+0.6, -y+0.8, -x'
   'z+0.4, y+0.2, x'
   'x, y+0.3, z+1/2'
   '-x, -y+0.9, -z+0.7'
   '-x+0.15, -y+0.95, z+0.4'
   'x+0.05, y+1/4, -z+0.6'
   '-x+0.05, y+0.2, -z+0.65'
   'x+0.15, -y+0.8, z+0.55'
   'x+0.1, -y+0.85, -z+3/4'
   '-x+0.1, y+0.35, z+0.45'
   'z+0.4, x+0.1, y+0.3'
   '-z+0.6, -x+0.1, -y+0.9'
   'z+1/2, -x+0.05, -y+0.95'
   '-z+0.7, x+0.15, y+1/4'
   '-z+3/4, -x+0.15, y+0.2'
   'z+0.45, x+0.05, -y+0.8'
   '-z+0.65, x, -y+0.85'
   'z+0.55, -x, y+0.35'
   'y+0.2, z+1/2, x+0.1'
   '-y+0.8, -z+0.7, -x+0.1'
   '-y+0.85, z+0.4, -x+0.05'
   'y+0.35, -z+0.6, x+0.15'
   'y+0.3, -z+0.65, -x+0.15'
   '-y+0.9, z+0.55, x+0.05'
   '-y+0.95, -z+3/4, x'
   'y+1/4, z+0.45, -x'
   'y+0.35, x+0.15, -z+0.6'
   '-y+0.85, -x+0.05, z+0.4'
   '-y+0.8, -x+0.1, -z+0.7'
   'y+0.2, x+0.1, z+1/2'
   'y+1/4, -x, z+0.45'
   '-y+0.95, x, -z+3/4'
   '-y+0.9, x+0.05, z+0.55'
   'y+0.3, -x+0.15, -z+0.65'
   'x+0.15, z+0.55, -y+0.8'
   '-x+0.05, -z+0.65, y+0.2'
   '-x+0.1, z+0.45, y+0.35'
   'x+0.1, -z+3/4, -y+0.85'
   '-x, -z+0.7, -y+0.9'
   'x, z+1/2, y+0.3'
   'x+0.05, -z+0.6, y+1/4'
   '-x+0.15, z+0.4, -y+0.95'
   'z+0.55, y+0.35, -x'
   '-z+0.65, -y+0.85, x'
   'z+0.45, -y+0.8, x+0.05'
   '-z+3/4, y+0.2, -x+0.15'
   '-z+0.7, y+1/4, x+0.15'
   'z+1/2, -y+0.95, -x+0.05'
   '-z+0.6, -y+0.9, -x+0.1'
   'z+0.4, y+0.3, x+0.1'
   'x+0.1, y+0.2, z+1/2'
   '-x+0.1, -y+0.8, -z+0.7'
   '-x+0.05, -y+0.85, z+0.4'
   'x+0.15, y+0.35, -z+0.6'
   '-x+0.15, y+0.3, -z+0.65'
   'x+0.05, -y+0.9, z+0.55'
   'x, -y+0.95, -z+3/4'
   '-x, y+1/4, z+0.45'
   'z+1/2, x, y+0.3'
   '-z+0.7, -x, -y+0.9'
   'z+0.4, -x+0.15, -y+0.95'
   '-z+0.6, x+0.05, y+1/4'
   '-z+0.65, -x+0.05, y+0.2'
   'z+0.55, x+0.15, -y+0.8'
   '-z+3/4, x+0.1, -y+0.85'
   'z+0.45, -x+0.1, y+0.35'
   'y+0.3, z+0.4, x+0.1'
   '-y+0.9, -z+0.6, -x+0.1'
   '-y+0.95, z+1/2, -x+0.05'
   'y+1/4, -z+0.7, x+0.15'
   'y+0.2, -z+3/4, -x+0.15'
   '-y+0.8, z+0.45, x+0.05'
   '-y+0.85, -z+0.65, x'
   'y+0.35, z+0.55, -x'
   'y+1/4, x+0.05, -z+0.6'
   '-y+0.95, -x+0.15, z+0.4'
   '-y+0.9, -x, -z+0.7'
   'y+0.3, x, z+1/2'
   'y+0.35, -x+0.1, z+0.45'
   '-y+0.85, x+0.1, -z+3/4'
   '-y+0.8, x+0.15, z+0.55'
   'y+0.2, -x+0.05, -z+0.65'
   'x+0.05, z+0.45, -y+0.8'
   '-x+0.15, -z+3/4, y+0.2'
   '-x, z+0.55, y+0.35'
   'x, -z+0.65, -y+0.85'
   '-x+0.1, -z+0.6, -y+0.9'
   'x+0.1, z+0.4, y+0.3'
   'x+0.15, -z+0.7, y+1/4'
   '-x+0.05, z+1/2, -y+0.95'
   'z+0.45, y+1/4, -x'
   '-z+3/4, -y+0.95, x'
   'z+0.55, -y+0.9, x+0.05'
   '-z+0.65, y+0.3, -x+0.15'
   '-z+0.6, y+0.35, x+0.15'
   'z+0.4, -y+0.85, -x+0.05'
   '-z+0.7, -y+0.8, -x+0.1'
   'z+1/2, y+0.2, x+0.1'
   'x+0.1, y+0.3, z+0.4'
   '-x+0.1, -y+0.9, -z+0.6'
   '-x+0.05, -y+0.95, z+1/2'
   'x+0.15, y+1/4, -z+0.7'
   '-x+0.15, y+0.2, -z+3/4'
   'x+0.05, -y+0.8, z+0.45'
   'x, -y+0.85, -z+0.65'
   '-x, y+0.35, z+0.55'
   'z+1/2, x+0.1, y+0.2'
   '-z+0.7, -x+0.1, -y+0.8'
   'z+0.4, -x+0.05, -y+0.85'
   '-z+0.6, x+0.15, y+0.35'
   '-z+0.65, -x+0.15, y+0.3'
   'z+0.55, x+0.05, -y+0.9'
   '-z+3/4, x, -y+0.95'
   'z+0.45, -x, y+1/4'
   'y+0.3, z+1/2, x'
   '-y+0.9, -z+0.7, -x'
   '-y+0.95, z+0.4, -x+0.15'
   'y+1/4, -z+0.6, x+0.05'
   'y+0.2, -z+0.65, -x+0.05'
   '-y+0.8, z+0.55, x+0.15'
   '-y+0.85, -z+3/4, x+0.1'
   'y+0.35, z+0.45, -x+0.1'
   'y+1/4, x+0.15, -z+0.7'
   '-y+0.95, -x+0.05, z+1/2'
   '-y+0.9, -x+0.1, -z+0.6'
   'y+0.3, x+0.1, z+0.4'
   'y+0.35, -x, z+0.55'
   '-y+0.85, x, -z+0.65'
   '-y+0.8, x+0.05, z+0.45'
   'y+0.2, -x+0.15, -z+3/4'
   'x+0.05, z+0.55, -y+0.9'
   '-x+0.15, -z+0.65, y+0.3'
   '-x, z+0.45, y+1/4'
   'x, -z+3/4, -y+0.95'
   '-x+0.1, -z+0.7, -y+0.8'
   'x+0.1, z+1/2, y+0.2'
   'x+0.15, -z+0.6, y+0.35'
   '-x+0.05, z+0.4, -y+0.85'
   'z+0.45, y+0.35, -x+0.1'
   '-z+3/4, -y+0.85, x+0.1'
   'z+0.55, -y+0.8, x+0.15'
   '-z+0.65, y+0.2, -x+0.05'
   '-z+0.6, y+1/4, x+0.05'
   'z+0.4, -y+0.95, -x+0.15'
   '-z+0.7, -y+0.9, -x'
   'z+1/2, y+0.3, x'
   'x, y+0.2, z+0.6'
   '-x, -y+0.8, -z+0.4'
   '-x+0.15, -y+0.85, z+0.7'
   'x+0.05, y+0.35, -z+1/2'
   '-x+0.05, y+0.3, -z+0.55'
   'x+0.15, -y+0.9, z+0.65'
   'x+0.1, -y+0.95, -z+0.45'
   '-x+0.1, y+1/4, z+3/4'
   'z+0.6, x, y+0.2'
   '-z+0.4, -x, -y+0.8'
   'z+0.7, -x+0.15, -y+0.85'
   '-z+1/2, x+0.05, y+0.35'
   '-z+0.55, -x+0.05, y+0.3'
   'z+0.65, x+0.15, -y+0.9'
   '-z+0.45, x+0.1, -y+0.95'
   'z+3/4, -x+0.1, y+1/4'
   'y+0.2, z+0.6, x'
   '-y+0.8, -z+0.4, -x'
   '-y+0.85, z+0.7, -x+0.15'
   'y+0.35, -z+1/2, x+0.05'
   'y+0.3, -z+0.55, -x+0.05'
   '-y+0.9, z+0.65, x+0.15'
   '-y+0.95, -z+0.45, x+0.1'
   'y+1/4, z+3/4, -x+0.1'
   'y+0.35, x+0.05, -z+1/2'
   '-y+0.85, -x+0.15, z+0.7'
   '-y+0.8, -x, -z+0.4'
   'y+0.2, x, z+0.6'
   'y+1/4, -x+0.1, z+3/4'
   '-y+0.95, x+0.1, -z+0.45'
   '-y+0.9, x+0.15, z+0.65'
   'y+0.3, -x+0.05, -z+0.55'
   'x+0.15, z+0.65, -y+0.9'
   '-x+0.05, -z+0.55, y+0.3'
   '-x+0.1, z+3/4, y+1/4'
   'x+0.1, -z+0.45, -y+0.95'
   '-x, -z+0.4, -y+0.8'
   'x, z+0.6, y+0.2'
   'x+0.05, -z+1/2, y+0.35'
   '-x+0.15, z+0.7, -y+0.85'
   'z+3/4, y+1/4, -x+0.1'
   '-z+0.45, -y+0.95, x+0.1'
   'z+0.65, -y+0.9, x+0.15'
   '-z+0.55, y+0.3, -x+0.05'
   '-z+1/2, y+0.35, x+0.05'
   'z+0.7, -y+0.85, -x+0.15'
   '-z+0.4, -y+0.8, -x'
   'z+0.6, y+0.2, x'
   'x, y+0.3, z+0.7'
   '-x, -y+0.9, -z+1/2'
   '-x+0.15, -y+0.95, z+0.6'
   'x+0.05, y+1/4, -z+0.4'
   '-x+0.05, y+0.2, -z+0.45'
   'x+0.15, -y+0.8, z+3/4'
   'x+0.1, -y+0.85, -z+0.55'
   '-x+0.1, y+0.35, z+0.65'
   'z+0.6, x+0.1, y+0.3'
   '-z+0.4, -x+0.1, -y+0.9'
   'z+0.7, -x+0.05, -y+0.95'
   '-z+1/2, x+0.15, y+1/4'
   '-z+0.55, -x+0.15, y+0.2'
   'z+0.65, x+0.05, -y+0.8'
   '-z+0.45, x, -y+0.85'
   'z+3/4, -x, y+0.35'
   'y+0.2, z+0.7, x+0.1'
   '-y+0.8, -z+1/2, -x+0.1'
   '-y+0.85, z+0.6, -x+0.05'
   'y+0.35, -z+0.4, x+0.15'
   'y+0.3, -z+0.45, -x+0.15'
   '-y+0.9, z+3/4, x+0.05'
   '-y+0.95, -z+0.55, x'
   'y+1/4, z+0.65, -x'
   'y+0.35, x+0.15, -z+0.4'
   '-y+0.85, -x+0.05, z+0.6'
   '-y+0.8, -x+0.1, -z+1/2'
   'y+0.2, x+0.1, z+0.7'
   'y+1/4, -x, z+0.65'
   '-y+0.95, x, -z+0.55'
   '-y+0.9, x+0.05, z+3/4'
   'y+0.3, -x+0.15, -z+0.45'
   'x+0.15, z+3/4, -y+0.8'
   '-x+0.05, -z+0.45, y+0.2'
   '-x+0.1, z+0.65, y+0.35'
   'x+0.1, -z+0.55, -y+0.85'
   '-x, -z+1/2, -y+0.9'
   'x, z+0.7, y+0.3'
   'x+0.05, -z+0.4, y+1/4'
   '-x+0.15, z+0.6, -y+0.95'
   'z+3/4, y+0.35, -x'
   '-z+0.45, -y+0.85, x'
   'z+0.65, -y+0.8, x+0.05'
   '-z+0.55, y+0.2, -x+0.15'
   '-z+1/2, y+1/4, x+0.15'
   'z+0.7, -y+0.95, -x+0.05'
   '-z+0.4, -y+0.9, -x+0.1'
   'z+0.6, y+0.3, x+0.1'
   'x+0.1, y+0.2, z+0.7'
   '-x+0.1, -y+0.8, -z+1/2'
   '-x+0.05, -y+0.85, z+0.6'
   'x+0.15, y+0.35, -z+0.4'
   '-x+0.15, y+0.3, -z+0.45'
   'x+0.05, -y+0.9, z+3/4'
   'x, -y+0.95, -z+0.55'
   '-x, y+1/4, z+0.65'
   'z+0.7, x, y+0.3'
   '-z+1/2, -x, -y+0.9'
   'z+0.6, -x+0.15, -y+0.95'
   '-z+0.4, x+0.05, y+1/4'
   '-z+0.45, -x+0.05, y+0.2'
   'z+3/4, x+0.15, -y+0.8'
   '-z+0.55, x+0.1, -y+0.85'
   'z+0.65, -x+0.1, y+0.35'
   'y+0.3, z+0.6, x+0.1'
   '-y+0.9, -z+0.4, -x+0.1'
   '-y+0.95, z+0.7, -x+0.05'
   'y+1/4, -z+1/2, x+0.15'
   'y+0.2, -z+0.55, -x+0.15'
   '-y+0.8, z+0.65, x+0.05'
   '-y+0.85, -z+0.45, x'
   'y+0.35, z+3/4, -x'
   'y+1/4, x+0.05, -z+0.4'
   '-y+0.95, -x+0.15, z+0.6'
   '-y+0.9, -x, -z+1/2'
   'y+0.3, x, z+0.7'
   'y+0.35, -x+0.1, z+0.65'
   '-y+0.85, x+0.1, -z+0.55'
   '-y+0.8, x+0.15, z+3/4'
   'y+0.2, -x+0.05, -z+0.45'
   'x+0.05, z+0.65, -y+0.8'
   '-x+0.15, -z+0.55, y+0.2'
   '-x, z+3/4, y+0.35'
   'x, -z+0.45, -y+0.85'
   '-x+0.1, -z+0.4, -y+0.9'
   'x+0.1, z+0.6, y+0.3'
   'x+0.15, -z+1/2, y+1/4'
   '-x+0.05, z+0.7, -y+0.95'
   'z+0.65, y+1/4, -x'
   '-z+0.55, -y+0.95, x'
   'z+3/4, -y+0.9, x+0.05'
   '-z+0.45, y+0.3, -x+0.15'
   '-z+0.4, y+0.35, x+0.15'
   'z+0.6, -y+0.85, -x+0.05'
   '-z+1/2, -y+0.8, -x+0.1'
   'z+0.7, y+0.2, x+0.1'
   'x+0.1, y+0.3, z+0.6'
   '-x+0.1, -y+0.9, -z+0.4'
   '-x+0.05, -y+0.95, z+0.7'
   'x+0.15, y+1/4, -z+1/2'
   '-x+0.15, y+0.2, -z+0.55'
   'x+0.05, -y+0.8, z+0.65'
   'x, -y+0.85, -z+0.45'
   '-x, y+0.35, z+3/4'
   'z+0.7, x+0.1, y+0.2'
   '-z+1/2, -x+0.1, -y+0.8'
   'z+0.6, -x+0.05, -y+0.85'
   '-z+0.4, x+0.15, y+0.35'
   '-z+0.45, -x+0.15, y+0.3'
   'z+3/4, x+0.05, -y+0.9'
   '-z+0.55, x, -y+0.95'
   'z+0.65, -x, y+1/4'
   'y+0.3, z+0.7, x'
   '-y+0.9, -z+1/2, -x'
   '-y+0.95, z+0.6, -x+0.15'
   'y+1/4, -z+0.4, x+0.05'
   'y+0.2, -z+0.45, -x+0.05'
   '-y+0.8, z+3/4, x+0.15'
   '-y+0.85, -z+0.55, x+0.1'
   'y+0.35, z+0.65, -x+0.1'
   'y+1/4, x+0.15, -z+1/2'
   '-y+0.95, -x+0.05, z+0.7'
   '-y+0.9, -x+0.1, -z+0.4'
   'y+0.3, x+0.1, z+0.6'
   'y+0.35, -x, z+3/4'
   '-y+0.85, x, -z+0.45'
   '-y+0.8, x+0.05, z+0.65'
   'y+0.2, -x+0.15, -z+0.55'
   'x+0.05, z+3/4, -y+0.9'
   '-x+0.15, -z+0.45, y+0.3'
   '-x, z+0.65, y+1/4'
   'x, -z+0.55, -y+0.95'
   '-x+0.1, -z+1/2, -y+0.8'
   'x+0.1, z+0.7, y+0.2'
   'x+0.15, -z+0.4, y+0.35'
   '-x+0.05, z+0.6, -y+0.85'
   'z+0.65, y+0.35, -x+0.1'
   '-z+0.55, -y+0.85, x+0.1'
   'z+3/4, -y+0.8, x+0.15'
   '-z+0.45, y+0.2, -x+0.05'
   '-z+0.4, y+1/4, x+0.05'
   'z+0.6, -y+0.95, -x+0.15'
   '-z+1/2, -y+0.9, -x'
   'z+0.7, y+0.3, x'
   'x, y+0.2, z+0.8'
   '-x, -y+0.8, -z+0.2'
   '-x+0.15, -y+0.85, z+0.9'
   'x+0.05, y+0.35, -z+0.3'
   '-x+0.05, y+0.3, -z+0.35'
   'x+0.15, -y+0.9, z+0.85'
   'x+0.1, -y+0.95, -z+1/4'
   '-x+0.1, y+1/4, z+0.95'
   'z+0.8, x, y+0.2'
   '-z+0.2, -x, -y+0.8'
   'z+0.9, -x+0.15, -y+0.85'
   '-z+0.3, x+0.05, y+0.35'
   '-z+0.35, -x+0.05, y+0.3'
   'z+0.85, x+0.15, -y+0.9'
   '-z+1/4, x+0.1, -y+0.95'
   'z+0.95, -x+0.1, y+1/4'
   'y+0.2, z+0.8, x'
   '-y+0.8, -z+0.2, -x'
   '-y+0.85, z+0.9, -x+0.15'
   'y+0.35, -z+0.3, x+0.05'
   'y+0.3, -z+0.35, -x+0.05'
   '-y+0.9, z+0.85, x+0.15'
   '-y+0.95, -z+1/4, x+0.1'
   'y+1/4, z+0.95, -x+0.1'
   'y+0.35, x+0.05, -z+0.3'
   '-y+0.85, -x+0.15, z+0.9'
   '-y+0.8, -x, -z+0.2'
   'y+0.2, x, z+0.8'
   'y+1/4, -x+0.1, z+0.95'
   '-y+0.95, x+0.1, -z+1/4'
   '-y+0.9, x+0.15, z+0.85'
   'y+0.3, -x+0.05, -z+0.35'
   'x+0.15, z+0.85, -y+0.9'
   '-x+0.05, -z+0.35, y+0.3'
   '-x+0.1, z+0.95, y+1/4'
   'x+0.1, -z+1/4, -y+0.95'
   '-x, -z+0.2, -y+0.8'
   'x, z+0.8, y+0.2'
   'x+0.05, -z+0.3, y+0.35'
   '-x+0.15, z+0.9, -y+0.85'
   'z+0.95, y+1/4, -x+0.1'
   '-z+1/4, -y+0.95, x+0.1'
   'z+0.85, -y+0.9, x+0.15'
   '-z+0.35, y+0.3, -x+0.05'
   '-z+0.3, y+0.35, x+0.05'
   'z+0.9, -y+0.85, -x+0.15'
   '-z+0.2, -y+0.8, -x'
   'z+0.8, y+0.2, x'
   'x, y+0.3, z+0.9'
   '-x, -y+0.9, -z+0.3'
   '-x+0.15, -y+0.95, z+0.8'
   'x+0.05, y+1/4, -z+0.2'
   '-x+0.05, y+0.2, -z+1/4'
   'x+0.15, -y+0.8, z+0.95'
   'x+0.1, -y+0.85, -z+0.35'
   '-x+0.1, y+0.35, z+0.85'
   'z+0.8, x+0.1, y+0.3'
   '-z+0.2, -x+0.1, -y+0.9'
   'z+0.9, -x+0.05, -y+0.95'
   '-z+0.3, x+0.15, y+1/4'
   '-z+0.35, -x+0.15, y+0.2'
   'z+0.85, x+0.05, -y+0.8'
   '-z+1/4, x, -y+0.85'
   'z+0.95, -x, y+0.35'
   'y+0.2, z+0.9, x+0.1'
   '-y+0.8, -z+0.3, -x+0.1'
   '-y+0.85, z+0.8, -x+0.05'
   'y+0.35, -z+0.2, x+0.15'
   'y+0.3, -z+1/4, -x+0.15'
   '-y+0.9, z+0.95, x+0.05'
   '-y+0.95, -z+0.35, x'
   'y+1/4, z+0.85, -x'
   'y+0.35, x+0.15, -z+0.2'
   '-y+0.85, -x+0.05, z+0.8'
   '-y+0.8, -x+0.1, -z+0.3'
   'y+0.2, x+0.1, z+0.9'
   'y+1/4, -x, z+0.85'
   '-y+0.95, x, -z+0.35'
   '-y+0.9, x+0.05, z+0.95'
   'y+0.3, -x+0.15, -z+1/4'
   'x+0.15, z+0.95, -y+0.8'
   '-x+0.05, -z+1/4, y+0.2'
   '-x+0.1, z+0.85, y+0.35'
   'x+0.1, -z+0.35, -y+0.85'
   '-x, -z+0.3, -y+0.9'
   'x, z+0.9, y+0.3'
   'x+0.05, -z+0.2, y+1/4'
   '-x+0.15, z+0.8, -y+0.95'
   'z+0.95, y+0.35, -x'
   '-z+1/4, -y+0.85, x'
   'z+0.85, -y+0.8, x+0.05'
   '-z+0.35, y+0.2, -x+0.15'
   '-z+0.3, y+1/4, x+0.15'
   'z+0.9, -y+0.95, -x+0.05'
   '-z+0.2, -y+0.9, -x+0.1'
   'z+0.8, y+0.3, x+0.1'
   'x+0.1, y+0.2, z+0.9'
   '-x+0.1, -y+0.8, -z+0.3'
   '-x+0.05, -y+0.85, z+0.8'
   'x+0.15, y+0.35, -z+0.2'
   '-x+0.15, y+0.3, -z+1/4'
   'x+0.05, -y+0.9, z+0.95'
   'x, -y+0.95, -z+0.35'
   '-x, y+1/4, z+0.85'
   'z+0.9, x, y+0.3'
   '-z+0.3, -x, -y+0.9'
   'z+0.8, -x+0.15, -y+0.95'
   '-z+0.2, x+0.05, y+1/4'
   '-z+1/4, -x+0.05, y+0.2'
   'z+0.95, x+0.15, -y+0.8'
   '-z+0.35, x+0.1, -y+0.85'
   'z+0.85, -x+0.1, y+0.35'
   'y+0.3, z+0.8, x+0.1'
   '-y+0.9, -z+0.2, -x+0.1'
   '-y+0.95, z+0.9, -x+0.05'
   'y+1/4, -z+0.3, x+0.15'
   'y+0.2, -z+0.35, -x+0.15'
   '-y+0.8, z+0.85, x+0.05'
   '-y+0.85, -z+1/4, x'
   'y+0.35, z+0.95, -x'
   'y+1/4, x+0.05, -z+0.2'
   '-y+0.95, -x+0.15, z+0.8'
   '-y+0.9, -x, -z+0.3'
   'y+0.3, x, z+0.9'
   'y+0.35, -x+0.1, z+0.85'
   '-y+0.85, x+0.1, -z+0.35'
   '-y+0.8, x+0.15, z+0.95'
   'y+0.2, -x+0.05, -z+1/4'
   'x+0.05, z+0.85, -y+0.8'
   '-x+0.15, -z+0.35, y+0.2'
   '-x, z+0.95, y+0.35'
   'x, -z+1/4, -y+0.85'
   '-x+0.1, -z+0.2, -y+0.9'
   'x+0.1, z+0.8, y+0.3'
   'x+0.15, -z+0.3, y+1/4'
   '-x+0.05, z+0.9, -y+0.95'
   'z+0.85, y+1/4, -x'
   '-z+0.35, -y+0.95, x'
   'z+0.95, -y+0.9, x+0.05'
   '-z+1/4, y+0.3, -x+0.15'
   '-z+0.2, y+0.35, x+0.15'
   'z+0.8, -y+0.85, -x+0.05'
   '-z+0.3, -y+0.8, -x+0.1'
   'z+0.9, y+0.2, x+0.1'
   'x+0.1, y+0.3, z+0.8'
   '-x+0.1, -y+0.9, -z+0.2'
   '-x+0.05, -y+0.95, z+0.9'
   'x+0.15, y+1/4, -z+0.3'
   '-x+0.15, y+0.2, -z+0.35'
   'x+0.05, -y+0.8, z+0.85'
   'x, -y+0.85, -z+1/4'
   '-x, y+0.35, z+0.95'
   'z+0.9, x+0.1, y+0.2'
   '-z+0.3, -x+0.1, -y+0.8'
   'z+0.8, -x+0.05, -y+0.85'
   '-z+0.2, x+0.15, y+0.35'
   '-z+1/4, -x+0.15, y+0.3'
   'z+0.95, x+0.05, -y+0.9'
   '-z+0.35, x, -y+0.95'
   'z+0.85, -x, y+1/4'
   'y+0.3, z+0.9, x'
   '-y+0.9, -z+0.3, -x'
   '-y+0.95, z+0.8, -x+0.15'
   'y+1/4, -z+0.2, x+0.05'
   'y+0.2, -z+1/4, -x+0.05'
   '-y+0.8, z+0.95, x+0.15'
   '-y+0.85, -z+0.35, x+0.1'
   'y+0.35, z+0.85, -x+0.1'
   'y+1/4, x+0.15, -z+0.3'
   '-y+0.95, -x+0.05, z+0.9'
   '-y+0.9, -x+0.1, -z+0.2'
   'y+0.3, x+0.1, z+0.8'
   'y+0.35, -x, z+0.95'
   '-y+0.85, x, -z+1/4'
   '-y+0.8, x+0.05, z+0.85'
   'y+0.2, -x+0.15, -z+0.35'
   'x+0.05, z+0.95, -y+0.9'
   '-x+0.15, -z+1/4, y+0.3'
   '-x, z+0.85, y+1/4'
   'x, -z+0.35, -y+0.95'
   '-x+0.1, -z+0.3, -y+0.8'
   'x+0.1, z+0.9, y+0.2'
   'x+0.15, -z+0.2, y+0.35'
   '-x+0.05, z+0.8, -y+0.85'
   'z+0.85, y+0.35, -x+0.1'
   '-z+0.35, -y+0.85, x+0.1'
   'z+0.95, -y+0.8, x+0.15'
   '-z+1/4, y+0.2, -x+0.05'
   '-z+0.2, y+1/4, x+0.05'
   'z+0.8, -y+0.95, -x+0.15'
   '-z+0.3, -y+0.9, -x'
   'z+0.9, y+0.3, x'
   'x, y+0.4, z'
   '-x, -y+0.6, -z'
   '-x+0.15, -y+0.65, z+0.1'
   'x+0.05, y+0.55, -z+0.1'
   '-x+0.05, y+1/2, -z+0.15'
   'x+0.15, -y+0.7, z+0.05'
   'x+0.1, -y+3/4, -z+0.05'
   '-x+0.1, y+0.45, z+0.15'
   'z, x, y+0.4'
   '-z, -x, -y+0.6'
   'z+0.1, -x+0.15, -y+0.65'
   '-z+0.1, x+0.05, y+0.55'
   '-z+0.15, -x+0.05, y+1/2'
   'z+0.05, x+0.15, -y+0.7'
   '-z+0.05, x+0.1, -y+3/4'
   'z+0.15, -x+0.1, y+0.45'
   'y+0.4, z, x'
   '-y+0.6, -z, -x'
   '-y+0.65, z+0.1, -x+0.15'
   'y+0.55, -z+0.1, x+0.05'
   'y+1/2, -z+0.15, -x+0.05'
   '-y+0.7, z+0.05, x+0.15'
   '-y+3/4, -z+0.05, x+0.1'
   'y+0.45, z+0.15, -x+0.1'
   'y+0.55, x+0.05, -z+0.1'
   '-y+0.65, -x+0.15, z+0.1'
   '-y+0.6, -x, -z'
   'y+0.4, x, z'
   'y+0.45, -x+0.1, z+0.15'
   '-y+3/4, x+0.1, -z+0.05'
   '-y+0.7, x+0.15, z+0.05'
   'y+1/2, -x+0.05, -z+0.15'
   'x+0.15, z+0.05, -y+0.7'
   '-x+0.05, -z+0.15, y+1/2'
   '-x+0.1, z+0.15, y+0.45'
   'x+0.1, -z+0.05, -y+3/4'
   '-x, -z, -y+0.6'
   'x, z, y+0.4'
   'x+0.05, -z+0.1, y+0.55'
   '-x+0.15, z+0.1, -y+0.65'
   'z+0.15, y+0.45, -x+0.1'
   '-z+0.05, -y+3/4, x+0.1'
   'z+0.05, -y+0.7, x+0.15'
   '-z+0.15, y+1/2, -x+0.05'
   '-z+0.1, y+0.55, x+0.05'
   'z+0.1, -y+0.65, -x+0.15'
   '-z, -y+0.6, -x'
   'z, y+0.4, x'
   'x, y+1/2, z+0.1'
   '-x, -y+0.7, -z+0.1'
   '-x+0.15, -y+3/4, z'
   'x+0.05, y+0.45, -z'
   '-x+0.05, y+0.4, -z+0.05'
   'x+0.15, -y+0.6, z+0.15'
   'x+0.1, -y+0.65, -z+0.15'
   '-x+0.1, y+0.55, z+0.05'
   'z, x+0.1, y+1/2'
   '-z, -x+0.1, -y+0.7'
   'z+0.1, -x+0.05, -y+3/4'
   '-z+0.1, x+0.15, y+0.45'
   '-z+0.15, -x+0.15, y+0.4'
   'z+0.05, x+0.05, -y+0.6'
   '-z+0.05, x, -y+0.65'
   'z+0.15, -x, y+0.55'
   'y+0.4, z+0.1, x+0.1'
   '-y+0.6, -z+0.1, -x+0.1'
   '-y+0.65, z, -x+0.05'
   'y+0.55, -z, x+0.15'
   'y+1/2, -z+0.05, -x+0.15'
   '-y+0.7, z+0.15, x+0.05'
   '-y+3/4, -z+0.15, x'
   'y+0.45, z+0.05, -x'
   'y+0.55, x+0.15, -z'
   '-y+0.65, -x+0.05, z'
   '-y+0.6, -x+0.1, -z+0.1'
   'y+0.4, x+0.1, z+0.1'
   'y+0.45, -x, z+0.05'
   '-y+3/4, x, -z+0.15'
   '-y+0.7, x+0.05, z+0.15'
   'y+1/2, -x+0.15, -z+0.05'
   'x+0.15, z+0.15, -y+0.6'
   '-x+0.05, -z+0.05, y+0.4'
   '-x+0.1, z+0.05, y+0.55'
   'x+0.1, -z+0.15, -y+0.65'
   '-x, -z+0.1, -y+0.7'
   'x, z+0.1, y+1/2'
   'x+0.05, -z, y+0.45'
   '-x+0.15, z, -y+3/4'
   'z+0.15, y+0.55, -x'
   '-z+0.05, -y+0.65, x'
   'z+0.05, -y+0.6, x+0.05'
   '-z+0.15, y+0.4, -x+0.15'
   '-z+0.1, y+0.45, x+0.15'
   'z+0.1, -y+3/4, -x+0.05'
   '-z, -y+0.7, -x+0.1'
   'z, y+1/2, x+0.1'
   'x+0.1, y+0.4, z+0.1'
   '-x+0.1, -y+0.6, -z+0.1'
   '-x+0.05, -y+0.65, z'
   'x+0.15, y+0.55, -z'
   '-x+0.15, y+1/2, -z+0.05'
   'x+0.05, -y+0.7, z+0.15'
   'x, -y+3/4, -z+0.15'
   '-x, y+0.45, z+0.05'
   'z+0.1, x, y+1/2'
   '-z+0.1, -x, -y+0.7'
   'z, -x+0.15, -y+3/4'
   '-z, x+0.05, y+0.45'
   '-z+0.05, -x+0.05, y+0.4'
   'z+0.15, x+0.15, -y+0.6'
   '-z+0.15, x+0.1, -y+0.65'
   'z+0.05, -x+0.1, y+0.55'
   'y+1/2, z, x+0.1'
   '-y+0.7, -z, -x+0.1'
   '-y+3/4, z+0.1, -x+0.05'
   'y+0.45, -z+0.1, x+0.15'
   'y+0.4, -z+0.15, -x+0.15'
   '-y+0.6, z+0.05, x+0.05'
   '-y+0.65, -z+0.05, x'
   'y+0.55, z+0.15, -x'
   'y+0.45, x+0.05, -z'
   '-y+3/4, -x+0.15, z'
   '-y+0.7, -x, -z+0.1'
   'y+1/2, x, z+0.1'
   'y+0.55, -x+0.1, z+0.05'
   '-y+0.65, x+0.1, -z+0.15'
   '-y+0.6, x+0.15, z+0.15'
   'y+0.4, -x+0.05, -z+0.05'
   'x+0.05, z+0.05, -y+0.6'
   '-x+0.15, -z+0.15, y+0.4'
   '-x, z+0.15, y+0.55'
   'x, -z+0.05, -y+0.65'
   '-x+0.1, -z, -y+0.7'
   'x+0.1, z, y+1/2'
   'x+0.15, -z+0.1, y+0.45'
   '-x+0.05, z+0.1, -y+3/4'
   'z+0.05, y+0.45, -x'
   '-z+0.15, -y+3/4, x'
   'z+0.15, -y+0.7, x+0.05'
   '-z+0.05, y+1/2, -x+0.15'
   '-z, y+0.55, x+0.15'
   'z, -y+0.65, -x+0.05'
   '-z+0.1, -y+0.6, -x+0.1'
   'z+0.1, y+0.4, x+0.1'
   'x+0.1, y+1/2, z'
   '-x+0.1, -y+0.7, -z'
   '-x+0.05, -y+3/4, z+0.1'
   'x+0.15, y+0.45, -z+0.1'
   '-x+0.15, y+0.4, -z+0.15'
   'x+0.05, -y+0.6, z+0.05'
   'x, -y+0.65, -z+0.05'
   '-x, y+0.55, z+0.15'
   'z+0.1, x+0.1, y+0.4'
   '-z+0.1, -x+0.1, -y+0.6'
   'z, -x+0.05, -y+0.65'
   '-z, x+0.15, y+0.55'
   '-z+0.05, -x+0.15, y+1/2'
   'z+0.15, x+0.05, -y+0.7'
   '-z+0.15, x, -y+3/4'
   'z+0.05, -x, y+0.45'
   'y+1/2, z+0.1, x'
   '-y+0.7, -z+0.1, -x'
   '-y+3/4, z, -x+0.15'
   'y+0.45, -z, x+0.05'
   'y+0.4, -z+0.05, -x+0.05'
   '-y+0.6, z+0.15, x+0.15'
   '-y+0.65, -z+0.15, x+0.1'
   'y+0.55, z+0.05, -x+0.1'
   'y+0.45, x+0.15, -z+0.1'
   '-y+3/4, -x+0.05, z+0.1'
   '-y+0.7, -x+0.1, -z'
   'y+1/2, x+0.1, z'
   'y+0.55, -x, z+0.15'
   '-y+0.65, x, -z+0.05'
   '-y+0.6, x+0.05, z+0.05'
   'y+0.4, -x+0.15, -z+0.15'
   'x+0.05, z+0.15, -y+0.7'
   '-x+0.15, -z+0.05, y+1/2'
   '-x, z+0.05, y+0.45'
   'x, -z+0.15, -y+3/4'
   '-x+0.1, -z+0.1, -y+0.6'
   'x+0.1, z+0.1, y+0.4'
   'x+0.15, -z, y+0.55'
   '-x+0.05, z, -y+0.65'
   'z+0.05, y+0.55, -x+0.1'
   '-z+0.15, -y+0.65, x+0.1'
   'z+0.15, -y+0.6, x+0.15'
   '-z+0.05, y+0.4, -x+0.05'
   '-z, y+0.45, x+0.05'
   'z, -y+3/4, -x+0.15'
   '-z+0.1, -y+0.7, -x'
   'z+0.1, y+1/2, x'
   'x, y+0.4, z+0.2'
   '-x, -y+0.6, -z+0.8'
   '-x+0.15, -y+0.65, z+0.3'
   'x+0.05, y+0.55, -z+0.9'
   '-x+0.05, y+1/2, -z+0.95'
   'x+0.15, -y+0.7, z+1/4'
   'x+0.1, -y+3/4, -z+0.85'
   '-x+0.1, y+0.45, z+0.35'
   'z+0.2, x, y+0.4'
   '-z+0.8, -x, -y+0.6'
   'z+0.3, -x+0.15, -y+0.65'
   '-z+0.9, x+0.05, y+0.55'
   '-z+0.95, -x+0.05, y+1/2'
   'z+1/4, x+0.15, -y+0.7'
   '-z+0.85, x+0.1, -y+3/4'
   'z+0.35, -x+0.1, y+0.45'
   'y+0.4, z+0.2, x'
   '-y+0.6, -z+0.8, -x'
   '-y+0.65, z+0.3, -x+0.15'
   'y+0.55, -z+0.9, x+0.05'
   'y+1/2, -z+0.95, -x+0.05'
   '-y+0.7, z+1/4, x+0.15'
   '-y+3/4, -z+0.85, x+0.1'
   'y+0.45, z+0.35, -x+0.1'
   'y+0.55, x+0.05, -z+0.9'
   '-y+0.65, -x+0.15, z+0.3'
   '-y+0.6, -x, -z+0.8'
   'y+0.4, x, z+0.2'
   'y+0.45, -x+0.1, z+0.35'
   '-y+3/4, x+0.1, -z+0.85'
   '-y+0.7, x+0.15, z+1/4'
   'y+1/2, -x+0.05, -z+0.95'
   'x+0.15, z+1/4, -y+0.7'
   '-x+0.05, -z+0.95, y+1/2'
   '-x+0.1, z+0.35, y+0.45'
   'x+0.1, -z+0.85, -y+3/4'
   '-x, -z+0.8, -y+0.6'
   'x, z+0.2, y+0.4'
   'x+0.05, -z+0.9, y+0.55'
   '-x+0.15, z+0.3, -y+0.65'
   'z+0.35, y+0.45, -x+0.1'
   '-z+0.85, -y+3/4, x+0.1'
   'z+1/4, -y+0.7, x+0.15'
   '-z+0.95, y+1/2, -x+0.05'
   '-z+0.9, y+0.55, x+0.05'
   'z+0.3, -y+0.65, -x+0.15'
   '-z+0.8, -y+0.6, -x'
   'z+0.2, y+0.4, x'
   'x, y+1/2, z+0.3'
   '-x, -y+0.7, -z+0.9'
   '-x+0.15, -y+3/4, z+0.2'
   'x+0.05, y+0.45, -z+0.8'
   '-x+0.05, y+0.4, -z+0.85'
   'x+0.15, -y+0.6, z+0.35'
   'x+0.1, -y+0.65, -z+0.95'
   '-x+0.1, y+0.55, z+1/4'
   'z+0.2, x+0.1, y+1/2'
   '-z+0.8, -x+0.1, -y+0.7'
   'z+0.3, -x+0.05, -y+3/4'
   '-z+0.9, x+0.15, y+0.45'
   '-z+0.95, -x+0.15, y+0.4'
   'z+1/4, x+0.05, -y+0.6'
   '-z+0.85, x, -y+0.65'
   'z+0.35, -x, y+0.55'
   'y+0.4, z+0.3, x+0.1'
   '-y+0.6, -z+0.9, -x+0.1'
   '-y+0.65, z+0.2, -x+0.05'
   'y+0.55, -z+0.8, x+0.15'
   'y+1/2, -z+0.85, -x+0.15'
   '-y+0.7, z+0.35, x+0.05'
   '-y+3/4, -z+0.95, x'
   'y+0.45, z+1/4, -x'
   'y+0.55, x+0.15, -z+0.8'
   '-y+0.65, -x+0.05, z+0.2'
   '-y+0.6, -x+0.1, -z+0.9'
   'y+0.4, x+0.1, z+0.3'
   'y+0.45, -x, z+1/4'
   '-y+3/4, x, -z+0.95'
   '-y+0.7, x+0.05, z+0.35'
   'y+1/2, -x+0.15, -z+0.85'
   'x+0.15, z+0.35, -y+0.6'
   '-x+0.05, -z+0.85, y+0.4'
   '-x+0.1, z+1/4, y+0.55'
   'x+0.1, -z+0.95, -y+0.65'
   '-x, -z+0.9, -y+0.7'
   'x, z+0.3, y+1/2'
   'x+0.05, -z+0.8, y+0.45'
   '-x+0.15, z+0.2, -y+3/4'
   'z+0.35, y+0.55, -x'
   '-z+0.85, -y+0.65, x'
   'z+1/4, -y+0.6, x+0.05'
   '-z+0.95, y+0.4, -x+0.15'
   '-z+0.9, y+0.45, x+0.15'
   'z+0.3, -y+3/4, -x+0.05'
   '-z+0.8, -y+0.7, -x+0.1'
   'z+0.2, y+1/2, x+0.1'
   'x+0.1, y+0.4, z+0.3'
   '-x+0.1, -y+0.6, -z+0.9'
   '-x+0.05, -y+0.65, z+0.2'
   'x+0.15, y+0.55, -z+0.8'
   '-x+0.15, y+1/2, -z+0.85'
   'x+0.05, -y+0.7, z+0.35'
   'x, -y+3/4, -z+0.95'
   '-x, y+0.45, z+1/4'
   'z+0.3, x, y+1/2'
   '-z+0.9, -x, -y+0.7'
   'z+0.2, -x+0.15, -y+3/4'
   '-z+0.8, x+0.05, y+0.45'
   '-z+0.85, -x+0.05, y+0.4'
   'z+0.35, x+0.15, -y+0.6'
   '-z+0.95, x+0.1, -y+0.65'
   'z+1/4, -x+0.1, y+0.55'
   'y+1/2, z+0.2, x+0.1'
   '-y+0.7, -z+0.8, -x+0.1'
   '-y+3/4, z+0.3, -x+0.05'
   'y+0.45, -z+0.9, x+0.15'
   'y+0.4, -z+0.95, -x+0.15'
   '-y+0.6, z+1/4, x+0.05'
   '-y+0.65, -z+0.85, x'
   'y+0.55, z+0.35, -x'
   'y+0.45, x+0.05, -z+0.8'
   '-y+3/4, -x+0.15, z+0.2'
   '-y+0.7, -x, -z+0.9'
   'y+1/2, x, z+0.3'
   'y+0.55, -x+0.1, z+1/4'
   '-y+0.65, x+0.1, -z+0.95'
   '-y+0.6, x+0.15, z+0.35'
   'y+0.4, -x+0.05, -z+0.85'
   'x+0.05, z+1/4, -y+0.6'
   '-x+0.15, -z+0.95, y+0.4'
   '-x, z+0.35, y+0.55'
   'x, -z+0.85, -y+0.65'
   '-x+0.1, -z+0.8, -y+0.7'
   'x+0.1, z+0.2, y+1/2'
   'x+0.15, -z+0.9, y+0.45'
   '-x+0.05, z+0.3, -y+3/4'
   'z+1/4, y+0.45, -x'
   '-z+0.95, -y+3/4, x'
   'z+0.35, -y+0.7, x+0.05'
   '-z+0.85, y+1/2, -x+0.15'
   '-z+0.8, y+0.55, x+0.15'
   'z+0.2, -y+0.65, -x+0.05'
   '-z+0.9, -y+0.6, -x+0.1'
   'z+0.3, y+0.4, x+0.1'
   'x+0.1, y+1/2, z+0.2'
   '-x+0.1, -y+0.7, -z+0.8'
   '-x+0.05, -y+3/4, z+0.3'
   'x+0.15, y+0.45, -z+0.9'
   '-x+0.15, y+0.4, -z+0.95'
   'x+0.05, -y+0.6, z+1/4'
   'x, -y+0.65, -z+0.85'
   '-x, y+0.55, z+0.35'
   'z+0.3, x+0.1, y+0.4'
   '-z+0.9, -x+0.1, -y+0.6'
   'z+0.2, -x+0.05, -y+0.65'
   '-z+0.8, x+0.15, y+0.55'
   '-z+0.85, -x+0.15, y+1/2'
   'z+0.35, x+0.05, -y+0.7'
   '-z+0.95, x, -y+3/4'
   'z+1/4, -x, y+0.45'
   'y+1/2, z+0.3, x'
   '-y+0.7, -z+0.9, -x'
   '-y+3/4, z+0.2, -x+0.15'
   'y+0.45, -z+0.8, x+0.05'
   'y+0.4, -z+0.85, -x+0.05'
   '-y+0.6, z+0.35, x+0.15'
   '-y+0.65, -z+0.95, x+0.1'
   'y+0.55, z+1/4, -x+0.1'
   'y+0.45, x+0.15, -z+0.9'
   '-y+3/4, -x+0.05, z+0.3'
   '-y+0.7, -x+0.1, -z+0.8'
   'y+1/2, x+0.1, z+0.2'
   'y+0.55, -x, z+0.35'
   '-y+0.65, x, -z+0.85'
   '-y+0.6, x+0.05, z+1/4'
   'y+0.4, -x+0.15, -z+0.95'
   'x+0.05, z+0.35, -y+0.7'
   '-x+0.15, -z+0.85, y+1/2'
   '-x, z+1/4, y+0.45'
   'x, -z+0.95, -y+3/4'
   '-x+0.1, -z+0.9, -y+0.6'
   'x+0.1, z+0.3, y+0.4'
   'x+0.15, -z+0.8, y+0.55'
   '-x+0.05, z+0.2, -y+0.65'
   'z+1/4, y+0.55, -x+0.1'
   '-z+0.95, -y+0.65, x+0.1'
   'z+0.35, -y+0.6, x+0.15'
   '-z+0.85, y+0.4, -x+0.05'
   '-z+0.8, y+0.45, x+0.05'
   'z+0.2, -y+3/4, -x+0.15'
   '-z+0.9, -y+0.7, -x'
   'z+0.3, y+1/2, x'
   'x, y+0.4, z+0.4'
   '-x, -y+0.6, -z+0.6'
   '-x+0.15, -y+0.65, z+1/2'
   'x+0.05, y+0.55, -z+0.7'
   '-x+0.05, y+1/2, -z+3/4'
   'x+0.15, -y+0.7, z+0.45'
   'x+0.1, -y+3/4, -z+0.65'
   '-x+0.1, y+0.45, z+0.55'
   'z+0.4, x, y+0.4'
   '-z+0.6, -x, -y+0.6'
   'z+1/2, -x+0.15, -y+0.65'
   '-z+0.7, x+0.05, y+0.55'
   '-z+3/4, -x+0.05, y+1/2'
   'z+0.45, x+0.15, -y+0.7'
   '-z+0.65, x+0.1, -y+3/4'
   'z+0.55, -x+0.1, y+0.45'
   'y+0.4, z+0.4, x'
   '-y+0.6, -z+0.6, -x'
   '-y+0.65, z+1/2, -x+0.15'
   'y+0.55, -z+0.7, x+0.05'
   'y+1/2, -z+3/4, -x+0.05'
   '-y+0.7, z+0.45, x+0.15'
   '-y+3/4, -z+0.65, x+0.1'
   'y+0.45, z+0.55, -x+0.1'
   'y+0.55, x+0.05, -z+0.7'
   '-y+0.65, -x+0.15, z+1/2'
   '-y+0.6, -x, -z+0.6'
   'y+0.4, x, z+0.4'
   'y+0.45, -x+0.1, z+0.55'
   '-y+3/4, x+0.1, -z+0.65'
   '-y+0.7, x+0.15, z+0.45'
   'y+1/2, -x+0.05, -z+3/4'
   'x+0.15, z+0.45, -y+0.7'
   '-x+0.05, -z+3/4, y+1/2'
   '-x+0.1, z+0.55, y+0.45'
   'x+0.1, -z+0.65, -y+3/4'
   '-x, -z+0.6, -y+0.6'
   'x, z+0.4, y+0.4'
   'x+0.05, -z+0.7, y+0.55'
   '-x+0.15, z+1/2, -y+0.65'
   'z+0.55, y+0.45, -x+0.1'
   '-z+0.65, -y+3/4, x+0.1'
   'z+0.45, -y+0.7, x+0.15'
   '-z+3/4, y+1/2, -x+0.05'
   '-z+0.7, y+0.55, x+0.05'
   'z+1/2, -y+0.65, -x+0.15'
   '-z+0.6, -y+0.6, -x'
   'z+0.4, y+0.4, x'
   'x, y+1/2, z+1/2'
   '-x, -y+0.7, -z+0.7'
   '-x+0.15, -y+3/4, z+0.4'
   'x+0.05, y+0.45, -z+0.6'
   '-x+0.05, y+0.4, -z+0.65'
   'x+0.15, -y+0.6, z+0.55'
   'x+0.1, -y+0.65, -z+3/4'
   '-x+0.1, y+0.55, z+0.45'
   'z+0.4, x+0.1, y+1/2'
   '-z+0.6, -x+0.1, -y+0.7'
   'z+1/2, -x+0.05, -y+3/4'
   '-z+0.7, x+0.15, y+0.45'
   '-z+3/4, -x+0.15, y+0.4'
   'z+0.45, x+0.05, -y+0.6'
   '-z+0.65, x, -y+0.65'
   'z+0.55, -x, y+0.55'
   'y+0.4, z+1/2, x+0.1'
   '-y+0.6, -z+0.7, -x+0.1'
   '-y+0.65, z+0.4, -x+0.05'
   'y+0.55, -z+0.6, x+0.15'
   'y+1/2, -z+0.65, -x+0.15'
   '-y+0.7, z+0.55, x+0.05'
   '-y+3/4, -z+3/4, x'
   'y+0.45, z+0.45, -x'
   'y+0.55, x+0.15, -z+0.6'
   '-y+0.65, -x+0.05, z+0.4'
   '-y+0.6, -x+0.1, -z+0.7'
   'y+0.4, x+0.1, z+1/2'
   'y+0.45, -x, z+0.45'
   '-y+3/4, x, -z+3/4'
   '-y+0.7, x+0.05, z+0.55'
   'y+1/2, -x+0.15, -z+0.65'
   'x+0.15, z+0.55, -y+0.6'
   '-x+0.05, -z+0.65, y+0.4'
   '-x+0.1, z+0.45, y+0.55'
   'x+0.1, -z+3/4, -y+0.65'
   '-x, -z+0.7, -y+0.7'
   'x, z+1/2, y+1/2'
   'x+0.05, -z+0.6, y+0.45'
   '-x+0.15, z+0.4, -y+3/4'
   'z+0.55, y+0.55, -x'
   '-z+0.65, -y+0.65, x'
   'z+0.45, -y+0.6, x+0.05'
   '-z+3/4, y+0.4, -x+0.15'
   '-z+0.7, y+0.45, x+0.15'
   'z+1/2, -y+3/4, -x+0.05'
   '-z+0.6, -y+0.7, -x+0.1'
   'z+0.4, y+1/2, x+0.1'
   'x+0.1, y+0.4, z+1/2'
   '-x+0.1, -y+0.6, -z+0.7'
   '-x+0.05, -y+0.65, z+0.4'
   'x+0.15, y+0.55, -z+0.6'
   '-x+0.15, y+1/2, -z+0.65'
   'x+0.05, -y+0.7, z+0.55'
   'x, -y+3/4, -z+3/4'
   '-x, y+0.45, z+0.45'
   'z+1/2, x, y+1/2'
   '-z+0.7, -x, -y+0.7'
   'z+0.4, -x+0.15, -y+3/4'
   '-z+0.6, x+0.05, y+0.45'
   '-z+0.65, -x+0.05, y+0.4'
   'z+0.55, x+0.15, -y+0.6'
   '-z+3/4, x+0.1, -y+0.65'
   'z+0.45, -x+0.1, y+0.55'
   'y+1/2, z+0.4, x+0.1'
   '-y+0.7, -z+0.6, -x+0.1'
   '-y+3/4, z+1/2, -x+0.05'
   'y+0.45, -z+0.7, x+0.15'
   'y+0.4, -z+3/4, -x+0.15'
   '-y+0.6, z+0.45, x+0.05'
   '-y+0.65, -z+0.65, x'
   'y+0.55, z+0.55, -x'
   'y+0.45, x+0.05, -z+0.6'
   '-y+3/4, -x+0.15, z+0.4'
   '-y+0.7, -x, -z+0.7'
   'y+1/2, x, z+1/2'
   'y+0.55, -x+0.1, z+0.45'
   '-y+0.65, x+0.1, -z+3/4'
   '-y+0.6, x+0.15, z+0.55'
   'y+0.4, -x+0.05, -z+0.65'
   'x+0.05, z+0.45, -y+0.6'
   '-x+0.15, -z+3/4, y+0.4'
   '-x, z+0.55, y+0.55'
   'x, -z+0.65, -y+0.65'
   '-x+0.1, -z+0.6, -y+0.7'
   'x+0.1, z+0.4, y+1/2'
   'x+0.15, -z+0.7, y+0.45'
   '-x+0.05, z+1/2, -y+3/4'
   'z+0.45, y+0.45, -x'
   '-z+3/4, -y+3/4, x'
   'z+0.55, -y+0.7, x+0.05'
   '-z+0.65, y+1/2, -x+0.15'
   '-z+0.6, y+0.55, x+0.15'
   'z+0.4, -y+0.65, -x+0.05'
   '-z+0.7, -y+0.6, -x+0.1'
   'z+1/2, y+0.4, x+0.1'
   'x+0.1, y+1/2, z+0.4'
   '-x+0.1, -y+0.7, -z+0.6'
   '-x+0.05, -y+3/4, z+1/2'
   'x+0.15, y+0.45, -z+0.7'
   '-x+0.15, y+0.4, -z+3/4'
   'x+0.05, -y+0.6, z+0.45'
   'x, -y+0.65, -z+0.65'
   '-x, y+0.55, z+0.55'
   'z+1/2, x+0.1, y+0.4'
   '-z+0.7, -x+0.1, -y+0.6'
   'z+0.4, -x+0.05, -y+0.65'
   '-z+0.6, x+0.15, y+0.55'
   '-z+0.65, -x+0.15, y+1/2'
   'z+0.55, x+0.05, -y+0.7'
   '-z+3/4, x, -y+3/4'
   'z+0.45, -x, y+0.45'
   'y+1/2, z+1/2, x'
   '-y+0.7, -z+0.7, -x'
   '-y+3/4, z+0.4, -x+0.15'
   'y+0.45, -z+0.6, x+0.05'
   'y+0.4, -z+0.65, -x+0.05'
   '-y+0.6, z+0.55, x+0.15'
   '-y+0.65, -z+3/4, x+0.1'
   'y+0.55, z+0.45, -x+0.1'
   'y+0.45, x+0.15, -z+0.7'
   '-y+3/4, -x+0.05, z+1/2'
   '-y+0.7, -x+0.1, -z+0.6'
   'y+1/2, x+0.1, z+0.4'
   'y+0.55, -x, z+0.55'
   '-y+0.65, x, -z+0.65'
   '-y+0.6, x+0.05, z+0.45'
   'y+0.4, -x+0.15, -z+3/4'
   'x+0.05, z+0.55, -y+0.7'
   '-x+0.15, -z+0.65, y+1/2'
   '-x, z+0.45, y+0.45'
   'x, -z+3/4, -y+3/4'
   '-x+0.1, -z+0.7, -y+0.6'
   'x+0.1, z+1/2, y+0.4'
   'x+0.15, -z+0.6, y+0.55'
   '-x+0.05, z+0.4, -y+0.65'
   'z+0.45, y+0.55, -x+0.1'
   '-z+3/4, -y+0.65, x+0.1'
   'z+0.55, -y+0.6, x+0.15'
   '-z+0.65, y+0.4, -x+0.05'
   '-z+0.6, y+0.45, x+0.05'
   'z+0.4, -y+3/4, -x+0.15'
   '-z+0.7, -y+0.7, -x'
   'z+1/2, y+1/2, x'
   'x, y+0.4, z+0.6'
   '-x, -y+0.6, -z+0.4'
   '-x+0.15, -y+0.65, z+0.7'
   'x+0.05, y+0.55, -z+1/2'
   '-x+0.05, y+1/2, -z+0.55'
   'x+0.15, -y+0.7, z+0.65'
   'x+0.1, -y+3/4, -z+0.45'
   '-x+0.1, y+0.45, z+3/4'
   'z+0.6, x, y+0.4'
   '-z+0.4, -x, -y+0.6'
   'z+0.7, -x+0.15, -y+0.65'
   '-z+1/2, x+0.05, y+0.55'
   '-z+0.55, -x+0.05, y+1/2'
   'z+0.65, x+0.15, -y+0.7'
   '-z+0.45, x+0.1, -y+3/4'
   'z+3/4, -x+0.1, y+0.45'
   'y+0.4, z+0.6, x'
   '-y+0.6, -z+0.4, -x'
   '-y+0.65, z+0.7, -x+0.15'
   'y+0.55, -z+1/2, x+0.05'
   'y+1/2, -z+0.55, -x+0.05'
   '-y+0.7, z+0.65, x+0.15'
   '-y+3/4, -z+0.45, x+0.1'
   'y+0.45, z+3/4, -x+0.1'
   'y+0.55, x+0.05, -z+1/2'
   '-y+0.65, -x+0.15, z+0.7'
   '-y+0.6, -x, -z+0.4'
   'y+0.4, x, z+0.6'
   'y+0.45, -x+0.1, z+3/4'
   '-y+3/4, x+0.1, -z+0.45'
   '-y+0.7, x+0.15, z+0.65'
   'y+1/2, -x+0.05, -z+0.55'
   'x+0.15, z+0.65, -y+0.7'
   '-x+0.05, -z+0.55, y+1/2'
   '-x+0.1, z+3/4, y+0.45'
   'x+0.1, -z+0.45, -y+3/4'
   '-x, -z+0.4, -y+0.6'
   'x, z+0.6, y+0.4'
   'x+0.05, -z+1/2, y+0.55'
   '-x+0.15, z+0.7, -y+0.65'
   'z+3/4, y+0.45, -x+0.1'
   '-z+0.45, -y+3/4, x+0.1'
   'z+0.65, -y+0.7, x+0.15'
   '-z+0.55, y+1/2, -x+0.05'
   '-z+1/2, y+0.55, x+0.05'
   'z+0.7, -y+0.65, -x+0.15'
   '-z+0.4, -y+0.6, -x'
   'z+0.6, y+0.4, x'
   'x, y+1/2, z+0.7'
   '-x, -y+0.7, -z+1/2'
   '-x+0.15, -y+3/4, z+0.6'
   'x+0.05, y+0.45, -z+0.4'
   '-x+0.05, y+0.4, -z+0.45'
   'x+0.15, -y+0.6, z+3/4'
   'x+0.1, -y+0.65, -z+0.55'
   '-x+0.1, y+0.55, z+0.65'
   'z+0.6, x+0.1, y+1/2'
   '-z+0.4, -x+0.1, -y+0.7'
   'z+0.7, -x+0.05, -y+3/4'
   '-z+1/2, x+0.15, y+0.45'
   '-z+0.55, -x+0.15, y+0.4'
   'z+0.65, x+0.05, -y+0.6'
   '-z+0.45, x, -y+0.65'
   'z+3/4, -x, y+0.55'
   'y+0.4, z+0.7, x+0.1'
   '-y+0.6, -z+1/2, -x+0.1'
   '-y+0.65, z+0.6, -x+0.05'
   'y+0.55, -z+0.4, x+0.15'
   'y+1/2, -z+0.45, -x+0.15'
   '-y+0.7, z+3/4, x+0.05'
   '-y+3/4, -z+0.55, x'
   'y+0.45, z+0.65, -x'
   'y+0.55, x+0.15, -z+0.4'
   '-y+0.65, -x+0.05, z+0.6'
   '-y+0.6, -x+0.1, -z+1/2'
   'y+0.4, x+0.1, z+0.7'
   'y+0.45, -x, z+0.65'
   '-y+3/4, x, -z+0.55'
   '-y+0.7, x+0.05, z+3/4'
   'y+1/2, -x+0.15, -z+0.45'
   'x+0.15, z+3/4, -y+0.6'
   '-x+0.05, -z+0.45, y+0.4'
   '-x+0.1, z+0.65, y+0.55'
   'x+0.1, -z+0.55, -y+0.65'
   '-x, -z+1/2, -y+0.7'
   'x, z+0.7, y+1/2'
   'x+0.05, -z+0.4, y+0.45'
   '-x+0.15, z+0.6, -y+3/4'
   'z+3/4, y+0.55, -x'
   '-z+0.45, -y+0.65, x'
   'z+0.65, -y+0.6, x+0.05'
   '-z+0.55, y+0.4, -x+0.15'
   '-z+1/2, y+0.45, x+0.15'
   'z+0.7, -y+3/4, -x+0.05'
   '-z+0.4, -y+0.7, -x+0.1'
   'z+0.6, y+1/2, x+0.1'
   'x+0.1, y+0.4, z+0.7'
   '-x+0.1, -y+0.6, -z+1/2'
   '-x+0.05, -y+0.65, z+0.6'
   'x+0.15, y+0.55, -z+0.4'
   '-x+0.15, y+1/2, -z+0.45'
   'x+0.05, -y+0.7, z+3/4'
   'x, -y+3/4, -z+0.55'
   '-x, y+0.45, z+0.65'
   'z+0.7, x, y+1/2'
   '-z+1/2, -x, -y+0.7'
   'z+0.6, -x+0.15, -y+3/4'
   '-z+0.4, x+0.05, y+0.45'
   '-z+0.45, -x+0.05, y+0.4'
   'z+3/4, x+0.15, -y+0.6'
   '-z+0.55, x+0.1, -y+0.65'
   'z+0.65, -x+0.1, y+0.55'
   'y+1/2, z+0.6, x+0.1'
   '-y+0.7, -z+0.4, -x+0.1'
   '-y+3/4, z+0.7, -x+0.05'
   'y+0.45, -z+1/2, x+0.15'
   'y+0.4, -z+0.55, -x+0.15'
   '-y+0.6, z+0.65, x+0.05'
   '-y+0.65, -z+0.45, x'
   'y+0.55, z+3/4, -x'
   'y+0.45, x+0.05, -z+0.4'
   '-y+3/4, -x+0.15, z+0.6'
   '-y+0.7, -x, -z+1/2'
   'y+1/2, x, z+0.7'
   'y+0.55, -x+0.1, z+0.65'
   '-y+0.65, x+0.1, -z+0.55'
   '-y+0.6, x+0.15, z+3/4'
   'y+0.4, -x+0.05, -z+0.45'
   'x+0.05, z+0.65, -y+0.6'
   '-x+0.15, -z+0.55, y+0.4'
   '-x, z+3/4, y+0.55'
   'x, -z+0.45, -y+0.65'
   '-x+0.1, -z+0.4, -y+0.7'
   'x+0.1, z+0.6, y+1/2'
   'x+0.15, -z+1/2, y+0.45'
   '-x+0.05, z+0.7, -y+3/4'
   'z+0.65, y+0.45, -x'
   '-z+0.55, -y+3/4, x'
   'z+3/4, -y+0.7, x+0.05'
   '-z+0.45, y+1/2, -x+0.15'
   '-z+0.4, y+0.55, x+0.15'
   'z+0.6, -y+0.65, -x+0.05'
   '-z+1/2, -y+0.6, -x+0.1'
   'z+0.7, y+0.4, x+0.1'
   'x+0.1, y+1/2, z+0.6'
   '-x+0.1, -y+0.7, -z+0.4'
   '-x+0.05, -y+3/4, z+0.7'
   'x+0.15, y+0.45, -z+1/2'
   '-x+0.15, y+0.4, -z+0.55'
   'x+0.05, -y+0.6, z+0.65'
   'x, -y+0.65, -z+0.45'
   '-x, y+0.55, z+3/4'
   'z+0.7, x+0.1, y+0.4'
   '-z+1/2, -x+0.1, -y+0.6'
   'z+0.6, -x+0.05, -y+0.65'
   '-z+0.4, x+0.15, y+0.55'
   '-z+0.45, -x+0.15, y+1/2'
   'z+3/4, x+0.05, -y+0.7'
   '-z+0.55, x, -y+3/4'
   'z+0.65, -x, y+0.45'
   'y+1/2, z+0.7, x'
   '-y+0.7, -z+1/2, -x'
   '-y+3/4, z+0.6, -x+0.15'
   'y+0.45, -z+0.4, x+0.05'
   'y+0.4, -z+0.45, -x+0.05'
   '-y+0.6, z+3/4, x+0.15'
   '-y+0.65, -z+0.55, x+0.1'
   'y+0.55, z+0.65, -x+0.1'
   'y+0.45, x+0.15, -z+1/2'
   '-y+3/4, -x+0.05, z+0.7'
   '-y+0.7, -x+0.1, -z+0.4'
   'y+1/2, x+0.1, z+0.6'
   'y+0.55, -x, z+3/4'
   '-y+0.65, x, -z+0.45'
   '-y+0.6, x+0.05, z+0.65'
   'y+0.4, -x+0.15, -z+0.55'
   'x+0.05, z+3/4, -y+0.7'
   '-x+0.15, -z+0.45, y+1/2'
   '-x, z+0.65, y+0.45'
   'x, -z+0.55, -y+3/4'
   '-x+0.1, -z+1/2, -y+0.6'
   'x+0.1, z+0.7, y+0.4'
   'x+0.15, -z+0.4, y+0.55'
   '-x+0.05, z+0.6, -y+0.65'
   'z+0.65, y+0.55, -x+0.1'
   '-z+0.55, -y+0.65, x+0.1'
   'z+3/4, -y+0.6, x+0.15'
   '-z+0.45, y+0.4, -x+0.05'
   '-z+0.4, y+0.45, x+0.05'
   'z+0.6, -y+3/4, -x+0.15'
   '-z+1/2, -y+0.7, -x'
   'z+0.7, y+1/2, x'
   'x, y+0.4, z+0.8'
   '-x, -y+0.6, -z+0.2'
   '-x+0.15, -y+0.65, z+0.9'
   'x+0.05, y+0.55, -z+0.3'
   '-x+0.05, y+1/2, -z+0.35'
   'x+0.15, -y+0.7, z+0.85'
   'x+0.1, -y+3/4, -z+1/4'
   '-x+0.1, y+0.45, z+0.95'
   'z+0.8, x, y+0.4'
   '-z+0.2, -x, -y+0.6'
   'z+0.9, -x+0.15, -y+0.65'
   '-z+0.3, x+0.05, y+0.55'
   '-z+0.35, -x+0.05, y+1/2'
   'z+0.85, x+0.15, -y+0.7'
   '-z+1/4, x+0.1, -y+3/4'
   'z+0.95, -x+0.1, y+0.45'
   'y+0.4, z+0.8, x'
   '-y+0.6, -z+0.2, -x'
   '-y+0.65, z+0.9, -x+0.15'
   'y+0.55, -z+0.3, x+0.05'
   'y+1/2, -z+0.35, -x+0.05'
   '-y+0.7, z+0.85, x+0.15'
   '-y+3/4, -z+1/4, x+0.1'
   'y+0.45, z+0.95, -x+0.1'
   'y+0.55, x+0.05, -z+0.3'
   '-y+0.65, -x+0.15, z+0.9'
   '-y+0.6, -x, -z+0.2'
   'y+0.4, x, z+0.8'
   'y+0.45, -x+0.1, z+0.95'
   '-y+3/4, x+0.1, -z+1/4'
   '-y+0.7, x+0.15, z+0.85'
   'y+1/2, -x+0.05, -z+0.35'
   'x+0.15, z+0.85, -y+0.7'
   '-x+0.05, -z+0.35, y+1/2'
   '-x+0.1, z+0.95, y+0.45'
   'x+0.1, -z+1/4, -y+3/4'
   '-x, -z+0.2, -y+0.6'
   'x, z+0.8, y+0.4'
   'x+0.05, -z+0.3, y+0.55'
   '-x+0.15, z+0.9, -y+0.65'
   'z+0.95, y+0.45, -x+0.1'
   '-z+1/4, -y+3/4, x+0.1'
   'z+0.85, -y+0.7, x+0.15'
   '-z+0.35, y+1/2, -x+0.05'
   '-z+0.3, y+0.55, x+0.05'
   'z+0.9, -y+0.65, -x+0.15'
   '-z+0.2, -y+0.6, -x'
   'z+0.8, y+0.4, x'
   'x, y+1/2, z+0.9'
   '-x, -y+0.7, -z+0.3'
   '-x+0.15, -y+3/4, z+0.8'
   'x+0.05, y+0.45, -z+0.2'
   '-x+0.05, y+0.4, -z+1/4'
   'x+0.15, -y+0.6, z+0.95'
   'x+0.1, -y+0.65, -z+0.35'
   '-x+0.1, y+0.55, z+0.85'
   'z+0.8, x+0.1, y+1/2'
   '-z+0.2, -x+0.1, -y+0.7'
   'z+0.9, -x+0.05, -y+3/4'
   '-z+0.3, x+0.15, y+0.45'
   '-z+0.35, -x+0.15, y+0.4'
   'z+0.85, x+0.05, -y+0.6'
   '-z+1/4, x, -y+0.65'
   'z+0.95, -x, y+0.55'
   'y+0.4, z+0.9, x+0.1'
   '-y+0.6, -z+0.3, -x+0.1'
   '-y+0.65, z+0.8, -x+0.05'
   'y+0.55, -z+0.2, x+0.15'
   'y+1/2, -z+1/4, -x+0.15'
   '-y+0.7, z+0.95, x+0.05'
   '-y+3/4, -z+0.35, x'
   'y+0.45, z+0.85, -x'
   'y+0.55, x+0.15, -z+0.2'
   '-y+0.65, -x+0.05, z+0.8'
   '-y+0.6, -x+0.1, -z+0.3'
   'y+0.4, x+0.1, z+0.9'
   'y+0.45, -x, z+0.85'
   '-y+3/4, x, -z+0.35'
   '-y+0.7, x+0.05, z+0.95'
   'y+1/2, -x+0.15, -z+1/4'
   'x+0.15, z+0.95, -y+0.6'
   '-x+0.05, -z+1/4, y+0.4'
   '-x+0.1, z+0.85, y+0.55'
   'x+0.1, -z+0.35, -y+0.65'
   '-x, -z+0.3, -y+0.7'
   'x, z+0.9, y+1/2'
   'x+0.05, -z+0.2, y+0.45'
   '-x+0.15, z+0.8, -y+3/4'
   'z+0.95, y+0.55, -x'
   '-z+1/4, -y+0.65, x'
   'z+0.85, -y+0.6, x+0.05'
   '-z+0.35, y+0.4, -x+0.15'
   '-z+0.3, y+0.45, x+0.15'
   'z+0.9, -y+3/4, -x+0.05'
   '-z+0.2, -y+0.7, -x+0.1'
   'z+0.8, y+1/2, x+0.1'
   'x+0.1, y+0.4, z+0.9'
   '-x+0.1, -y+0.6, -z+0.3'
   '-x+0.05, -y+0.65, z+0.8'
   'x+0.15, y+0.55, -z+0.2'
   '-x+0.15, y+1/2, -z+1/4'
   'x+0.05, -y+0.7, z+0.95'
   'x, -y+3/4, -z+0.35'
   '-x, y+0.45, z+0.85'
   'z+0.9, x, y+1/2'
   '-z+0.3, -x, -y+0.7'
   'z+0.8, -x+0.15, -y+3/4'
   '-z+0.2, x+0.05, y+0.45'
   '-z+1/4, -x+0.05, y+0.4'
   'z+0.95, x+0.15, -y+0.6'
   '-z+0.35, x+0.1, -y+0.65'
   'z+0.85, -x+0.1, y+0.55'
   'y+1/2, z+0.8, x+0.1'
   '-y+0.7, -z+0.2, -x+0.1'
   '-y+3/4, z+0.9, -x+0.05'
   'y+0.45, -z+0.3, x+0.15'
   'y+0.4, -z+0.35, -x+0.15'
   '-y+0.6, z+0.85, x+0.05'
   '-y+0.65, -z+1/4, x'
   'y+0.55, z+0.95, -x'
   'y+0.45, x+0.05, -z+0.2'
   '-y+3/4, -x+0.15, z+0.8'
   '-y+0.7, -x, -z+0.3'
   'y+1/2, x, z+0.9'
   'y+0.55, -x+0.1, z+0.85'
   '-y+0.65, x+0.1, -z+0.35'
   '-y+0.6, x+0.15, z+0.95'
   'y+0.4, -x+0.05, -z+1/4'
   'x+0.05, z+0.85, -y+0.6'
   '-x+0.15, -z+0.35, y+0.4'
   '-x, z+0.95, y+0.55'
   'x, -z+1/4, -y+0.65'
   '-x+0.1, -z+0.2, -y+0.7'
   'x+0.1, z+0.8, y+1/2'
   'x+0.15, -z+0.3, y+0.45'
   '-x+0.05, z+0.9, -y+3/4'
   'z+0.85, y+0.45, -x'
   '-z+0.35, -y+3/4, x'
   'z+0.95, -y+0.7, x+0.05'
   '-z+1/4, y+1/2, -x+0.15'
   '-z+0.2, y+0.55, x+0.15'
   'z+0.8, -y+0.65, -x+0.05'
   '-z+0.3, -y+0.6, -x+0.1'
   'z+0.9, y+0.4, x+0.1'
   'x+0.1, y+1/2, z+0.8'
   '-x+0.1, -y+0.7, -z+0.2'
   '-x+0.05, -y+3/4, z+0.9'
   'x+0.15, y+0.45, -z+0.3'
   '-x+0.15, y+0.4, -z+0.35'
   'x+0.05, -y+0.6, z+0.85'
   'x, -y+0.65, -z+1/4'
   '-x, y+0.55, z+0.95'
   'z+0.9, x+0.1, y+0.4'
   '-z+0.3, -x+0.1, -y+0.6'
   'z+0.8, -x+0.05, -y+0.65'
   '-z+0.2, x+0.15, y+0.55'
   '-z+1/4, -x+0.15, y+1/2'
   'z+0.95, x+0.05, -y+0.7'
   '-z+0.35, x, -y+3/4'
   'z+0.85, -x, y+0.45'
   'y+1/2, z+0.9, x'
   '-y+0.7, -z+0.3, -x'
   '-y+3/4, z+0.8, -x+0.15'
   'y+0.45, -z+0.2, x+0.05'
   'y+0.4, -z+1/4, -x+0.05'
   '-y+0.6, z+0.95, x+0.15'
   '-y+0.65, -z+0.35, x+0.1'
   'y+0.55, z+0.85, -x+0.1'
   'y+0.45, x+0.15, -z+0.3'
   '-y+3/4, -x+0.05, z+0.9'
   '-y+0.7, -x+0.1, -z+0.2'
   'y+1/2, x+0.1, z+0.8'
   'y+0.55, -x, z+0.95'
   '-y+0.65, x, -z+1/4'
   '-y+0.6, x+0.05, z+0.85'
   'y+0.4, -x+0.15, -z+0.35'
   'x+0.05, z+0.95, -y+0.7'
   '-x+0.15, -z+1/4, y+1/2'
   '-x, z+0.85, y+0.45'
   'x, -z+0.35, -y+3/4'
   '-x+0.1, -z+0.3, -y+0.6'
   'x+0.1, z+0.9, y+0.4'
   'x+0.15, -z+0.2, y+0.55'
   '-x+0.05, z+0.8, -y+0.65'
   'z+0.85, y+0.55, -x+0.1'
   '-z+0.35, -y+0.65, x+0.1'
   'z+0.95, -y+0.6, x+0.15'
   '-z+1/4, y+0.4, -x+0.05'
   '-z+0.2, y+0.45, x+0.05'
   'z+0.8, -y+3/4, -x+0.15'
   '-z+0.3, -y+0.7, -x'
   'z+0.9, y+1/2, x'
   'x, y+0.6, z'
   '-x, -y+0.4, -z'
   '-x+0.15, -y+0.45, z+0.1'
   'x+0.05, y+3/4, -z+0.1'
   '-x+0.05, y+0.7, -z+0.15'
   'x+0.15, -y+1/2, z+0.05'
   'x+0.1, -y+0.55, -z+0.05'
   '-x+0.1, y+0.65, z+0.15'
   'z, x, y+0.6'
   '-z, -x, -y+0.4'
   'z+0.1, -x+0.15, -y+0.45'
   '-z+0.1, x+0.05, y+3/4'
   '-z+0.15, -x+0.05, y+0.7'
   'z+0.05, x+0.15, -y+1/2'
   '-z+0.05, x+0.1, -y+0.55'
   'z+0.15, -x+0.1, y+0.65'
   'y+0.6, z, x'
   '-y+0.4, -z, -x'
   '-y+0.45, z+0.1, -x+0.15'
   'y+3/4, -z+0.1, x+0.05'
   'y+0.7, -z+0.15, -x+0.05'
   '-y+1/2, z+0.05, x+0.15'
   '-y+0.55, -z+0.05, x+0.1'
   'y+0.65, z+0.15, -x+0.1'
   'y+3/4, x+0.05, -z+0.1'
   '-y+0.45, -x+0.15, z+0.1'
   '-y+0.4, -x, -z'
   'y+0.6, x, z'
   'y+0.65, -x+0.1, z+0.15'
   '-y+0.55, x+0.1, -z+0.05'
   '-y+1/2, x+0.15, z+0.05'
   'y+0.7, -x+0.05, -z+0.15'
   'x+0.15, z+0.05, -y+1/2'
   '-x+0.05, -z+0.15, y+0.7'
   '-x+0.1, z+0.15, y+0.65'
   'x+0.1, -z+0.05, -y+0.55'
   '-x, -z, -y+0.4'
   'x, z, y+0.6'
   'x+0.05, -z+0.1, y+3/4'
   '-x+0.15, z+0.1, -y+0.45'
   'z+0.15, y+0.65, -x+0.1'
   '-z+0.05, -y+0.55, x+0.1'
   'z+0.05, -y+1/2, x+0.15'
   '-z+0.15, y+0.7, -x+0.05'
   '-z+0.1, y+3/4, x+0.05'
   'z+0.1, -y+0.45, -x+0.15'
   '-z, -y+0.4, -x'
   'z, y+0.6, x'
   'x, y+0.7, z+0.1'
   '-x, -y+1/2, -z+0.1'
   '-x+0.15, -y+0.55, z'
   'x+0.05, y+0.65, -z'
   '-x+0.05, y+0.6, -z+0.05'
   'x+0.15, -y+0.4, z+0.15'
   'x+0.1, -y+0.45, -z+0.15'
   '-x+0.1, y+3/4, z+0.05'
   'z, x+0.1, y+0.7'
   '-z, -x+0.1, -y+1/2'
   'z+0.1, -x+0.05, -y+0.55'
   '-z+0.1, x+0.15, y+0.65'
   '-z+0.15, -x+0.15, y+0.6'
   'z+0.05, x+0.05, -y+0.4'
   '-z+0.05, x, -y+0.45'
   'z+0.15, -x, y+3/4'
   'y+0.6, z+0.1, x+0.1'
   '-y+0.4, -z+0.1, -x+0.1'
   '-y+0.45, z, -x+0.05'
   'y+3/4, -z, x+0.15'
   'y+0.7, -z+0.05, -x+0.15'
   '-y+1/2, z+0.15, x+0.05'
   '-y+0.55, -z+0.15, x'
   'y+0.65, z+0.05, -x'
   'y+3/4, x+0.15, -z'
   '-y+0.45, -x+0.05, z'
   '-y+0.4, -x+0.1, -z+0.1'
   'y+0.6, x+0.1, z+0.1'
   'y+0.65, -x, z+0.05'
   '-y+0.55, x, -z+0.15'
   '-y+1/2, x+0.05, z+0.15'
   'y+0.7, -x+0.15, -z+0.05'
   'x+0.15, z+0.15, -y+0.4'
   '-x+0.05, -z+0.05, y+0.6'
   '-x+0.1, z+0.05, y+3/4'
   'x+0.1, -z+0.15, -y+0.45'
   '-x, -z+0.1, -y+1/2'
   'x, z+0.1, y+0.7'
   'x+0.05, -z, y+0.65'
   '-x+0.15, z, -y+0.55'
   'z+0.15, y+3/4, -x'
   '-z+0.05, -y+0.45, x'
   'z+0.05, -y+0.4, x+0.05'
   '-z+0.15, y+0.6, -x+0.15'
   '-z+0.1, y+0.65, x+0.15'
   'z+0.1, -y+0.55, -x+0.05'
   '-z, -y+1/2, -x+0.1'
   'z, y+0.7, x+0.1'
   'x+0.1, y+0.6, z+0.1'
   '-x+0.1, -y+0.4, -z+0.1'
   '-x+0.05, -y+0.45, z'
   'x+0.15, y+3/4, -z'
   '-x+0.15, y+0.7, -z+0.05'
   'x+0.05, -y+1/2, z+0.15'
   'x, -y+0.55, -z+0.15'
   '-x, y+0.65, z+0.05'
   'z+0.1, x, y+0.7'
   '-z+0.1, -x, -y+1/2'
   'z, -x+0.15, -y+0.55'
   '-z, x+0.05, y+0.65'
   '-z+0.05, -x+0.05, y+0.6'
   'z+0.15, x+0.15, -y+0.4'
   '-z+0.15, x+0.1, -y+0.45'
   'z+0.05, -x+0.1, y+3/4'
   'y+0.7, z, x+0.1'
   '-y+1/2, -z, -x+0.1'
   '-y+0.55, z+0.1, -x+0.05'
   'y+0.65, -z+0.1, x+0.15'
   'y+0.6, -z+0.15, -x+0.15'
   '-y+0.4, z+0.05, x+0.05'
   '-y+0.45, -z+0.05, x'
   'y+3/4, z+0.15, -x'
   'y+0.65, x+0.05, -z'
   '-y+0.55, -x+0.15, z'
   '-y+1/2, -x, -z+0.1'
   'y+0.7, x, z+0.1'
   'y+3/4, -x+0.1, z+0.05'
   '-y+0.45, x+0.1, -z+0.15'
   '-y+0.4, x+0.15, z+0.15'
   'y+0.6, -x+0.05, -z+0.05'
   'x+0.05, z+0.05, -y+0.4'
   '-x+0.15, -z+0.15, y+0.6'
   '-x, z+0.15, y+3/4'
   'x, -z+0.05, -y+0.45'
   '-x+0.1, -z, -y+1/2'
   'x+0.1, z, y+0.7'
   'x+0.15, -z+0.1, y+0.65'
   '-x+0.05, z+0.1, -y+0.55'
   'z+0.05, y+0.65, -x'
   '-z+0.15, -y+0.55, x'
   'z+0.15, -y+1/2, x+0.05'
   '-z+0.05, y+0.7, -x+0.15'
   '-z, y+3/4, x+0.15'
   'z, -y+0.45, -x+0.05'
   '-z+0.1, -y+0.4, -x+0.1'
   'z+0.1, y+0.6, x+0.1'
   'x+0.1, y+0.7, z'
   '-x+0.1, -y+1/2, -z'
   '-x+0.05, -y+0.55, z+0.1'
   'x+0.15, y+0.65, -z+0.1'
   '-x+0.15, y+0.6, -z+0.15'
   'x+0.05, -y+0.4, z+0.05'
   'x, -y+0.45, -z+0.05'
   '-x, y+3/4, z+0.15'
   'z+0.1, x+0.1, y+0.6'
   '-z+0.1, -x+0.1, -y+0.4'
   'z, -x+0.05, -y+0.45'
   '-z, x+0.15, y+3/4'
   '-z+0.05, -x+0.15, y+0.7'
   'z+0.15, x+0.05, -y+1/2'
   '-z+0.15, x, -y+0.55'
   'z+0.05, -x, y+0.65'
   'y+0.7, z+0.1, x'
   '-y+1/2, -z+0.1, -x'
   '-y+0.55, z, -x+0.15'
   'y+0.65, -z, x+0.05'
   'y+0.6, -z+0.05, -x+0.05'
   '-y+0.4, z+0.15, x+0.15'
   '-y+0.45, -z+0.15, x+0.1'
   'y+3/4, z+0.05, -x+0.1'
   'y+0.65, x+0.15, -z+0.1'
   '-y+0.55, -x+0.05, z+0.1'
   '-y+1/2, -x+0.1, -z'
   'y+0.7, x+0.1, z'
   'y+3/4, -x, z+0.15'
   '-y+0.45, x, -z+0.05'
   '-y+0.4, x+0.05, z+0.05'
   'y+0.6, -x+0.15, -z+0.15'
   'x+0.05, z+0.15, -y+1/2'
   '-x+0.15, -z+0.05, y+0.7'
   '-x, z+0.05, y+0.65'
   'x, -z+0.15, -y+0.55'
   '-x+0.1, -z+0.1, -y+0.4'
   'x+0.1, z+0.1, y+0.6'
   'x+0.15, -z, y+3/4'
   '-x+0.05, z, -y+0.45'
   'z+0.05, y+3/4, -x+0.1'
   '-z+0.15, -y+0.45, x+0.1'
   'z+0.15, -y+0.4, x+0.15'
   '-z+0.05, y+0.6, -x+0.05'
   '-z, y+0.65, x+0.05'
   'z, -y+0.55, -x+0.15'
   '-z+0.1, -y+1/2, -x'
   'z+0.1, y+0.7, x'
   'x, y+0.6, z+0.2'
   '-x, -y+0.4, -z+0.8'
   '-x+0.15, -y+0.45, z+0.3'
   'x+0.05, y+3/4, -z+0.9'
   '-x+0.05, y+0.7, -z+0.95'
   'x+0.15, -y+1/2, z+1/4'
   'x+0.1, -y+0.55, -z+0.85'
   '-x+0.1, y+0.65, z+0.35'
   'z+0.2, x, y+0.6'
   '-z+0.8, -x, -y+0.4'
   'z+0.3, -x+0.15, -y+0.45'
   '-z+0.9, x+0.05, y+3/4'
   '-z+0.95, -x+0.05, y+0.7'
   'z+1/4, x+0.15, -y+1/2'
   '-z+0.85, x+0.1, -y+0.55'
   'z+0.35, -x+0.1, y+0.65'
   'y+0.6, z+0.2, x'
   '-y+0.4, -z+0.8, -x'
   '-y+0.45, z+0.3, -x+0.15'
   'y+3/4, -z+0.9, x+0.05'
   'y+0.7, -z+0.95, -x+0.05'
   '-y+1/2, z+1/4, x+0.15'
   '-y+0.55, -z+0.85, x+0.1'
   'y+0.65, z+0.35, -x+0.1'
   'y+3/4, x+0.05, -z+0.9'
   '-y+0.45, -x+0.15, z+0.3'
   '-y+0.4, -x, -z+0.8'
   'y+0.6, x, z+0.2'
   'y+0.65, -x+0.1, z+0.35'
   '-y+0.55, x+0.1, -z+0.85'
   '-y+1/2, x+0.15, z+1/4'
   'y+0.7, -x+0.05, -z+0.95'
   'x+0.15, z+1/4, -y+1/2'
   '-x+0.05, -z+0.95, y+0.7'
   '-x+0.1, z+0.35, y+0.65'
   'x+0.1, -z+0.85, -y+0.55'
   '-x, -z+0.8, -y+0.4'
   'x, z+0.2, y+0.6'
   'x+0.05, -z+0.9, y+3/4'
   '-x+0.15, z+0.3, -y+0.45'
   'z+0.35, y+0.65, -x+0.1'
   '-z+0.85, -y+0.55, x+0.1'
   'z+1/4, -y+1/2, x+0.15'
   '-z+0.95, y+0.7, -x+0.05'
   '-z+0.9, y+3/4, x+0.05'
   'z+0.3, -y+0.45, -x+0.15'
   '-z+0.8, -y+0.4, -x'
   'z+0.2, y+0.6, x'
   'x, y+0.7, z+0.3'
   '-x, -y+1/2, -z+0.9'
   '-x+0.15, -y+0.55, z+0.2'
   'x+0.05, y+0.65, -z+0.8'
   '-x+0.05, y+0.6, -z+0.85'
   'x+0.15, -y+0.4, z+0.35'
   'x+0.1, -y+0.45, -z+0.95'
   '-x+0.1, y+3/4, z+1/4'
   'z+0.2, x+0.1, y+0.7'
   '-z+0.8, -x+0.1, -y+1/2'
   'z+0.3, -x+0.05, -y+0.55'
   '-z+0.9, x+0.15, y+0.65'
   '-z+0.95, -x+0.15, y+0.6'
   'z+1/4, x+0.05, -y+0.4'
   '-z+0.85, x, -y+0.45'
   'z+0.35, -x, y+3/4'
   'y+0.6, z+0.3, x+0.1'
   '-y+0.4, -z+0.9, -x+0.1'
   '-y+0.45, z+0.2, -x+0.05'
   'y+3/4, -z+0.8, x+0.15'
   'y+0.7, -z+0.85, -x+0.15'
   '-y+1/2, z+0.35, x+0.05'
   '-y+0.55, -z+0.95, x'
   'y+0.65, z+1/4, -x'
   'y+3/4, x+0.15, -z+0.8'
   '-y+0.45, -x+0.05, z+0.2'
   '-y+0.4, -x+0.1, -z+0.9'
   'y+0.6, x+0.1, z+0.3'
   'y+0.65, -x, z+1/4'
   '-y+0.55, x, -z+0.95'
   '-y+1/2, x+0.05, z+0.35'
   'y+0.7, -x+0.15, -z+0.85'
   'x+0.15, z+0.35, -y+0.4'
   '-x+0.05, -z+0.85, y+0.6'
   '-x+0.1, z+1/4, y+3/4'
   'x+0.1, -z+0.95, -y+0.45'
   '-x, -z+0.9, -y+1/2'
   'x, z+0.3, y+0.7'
   'x+0.05, -z+0.8, y+0.65'
   '-x+0.15, z+0.2, -y+0.55'
   'z+0.35, y+3/4, -x'
   '-z+0.85, -y+0.45, x'
   'z+1/4, -y+0.4, x+0.05'
   '-z+0.95, y+0.6, -x+0.15'
   '-z+0.9, y+0.65, x+0.15'
   'z+0.3, -y+0.55, -x+0.05'
   '-z+0.8, -y+1/2, -x+0.1'
   'z+0.2, y+0.7, x+0.1'
   'x+0.1, y+0.6, z+0.3'
   '-x+0.1, -y+0.4, -z+0.9'
   '-x+0.05, -y+0.45, z+0.2'
   'x+0.15, y+3/4, -z+0.8'
   '-x+0.15, y+0.7, -z+0.85'
   'x+0.05, -y+1/2, z+0.35'
   'x, -y+0.55, -z+0.95'
   '-x, y+0.65, z+1/4'
   'z+0.3, x, y+0.7'
   '-z+0.9, -x, -y+1/2'
   'z+0.2, -x+0.15, -y+0.55'
   '-z+0.8, x+0.05, y+0.65'
   '-z+0.85, -x+0.05, y+0.6'
   'z+0.35, x+0.15, -y+0.4'
   '-z+0.95, x+0.1, -y+0.45'
   'z+1/4, -x+0.1, y+3/4'
   'y+0.7, z+0.2, x+0.1'
   '-y+1/2, -z+0.8, -x+0.1'
   '-y+0.55, z+0.3, -x+0.05'
   'y+0.65, -z+0.9, x+0.15'
   'y+0.6, -z+0.95, -x+0.15'
   '-y+0.4, z+1/4, x+0.05'
   '-y+0.45, -z+0.85, x'
   'y+3/4, z+0.35, -x'
   'y+0.65, x+0.05, -z+0.8'
   '-y+0.55, -x+0.15, z+0.2'
   '-y+1/2, -x, -z+0.9'
   'y+0.7, x, z+0.3'
   'y+3/4, -x+0.1, z+1/4'
   '-y+0.45, x+0.1, -z+0.95'
   '-y+0.4, x+0.15, z+0.35'
   'y+0.6, -x+0.05, -z+0.85'
   'x+0.05, z+1/4, -y+0.4'
   '-x+0.15, -z+0.95, y+0.6'
   '-x, z+0.35, y+3/4'
   'x, -z+0.85, -y+0.45'
   '-x+0.1, -z+0.8, -y+1/2'
   'x+0.1, z+0.2, y+0.7'
   'x+0.15, -z+0.9, y+0.65'
   '-x+0.05, z+0.3, -y+0.55'
   'z+1/4, y+0.65, -x'
   '-z+0.95, -y+0.55, x'
   'z+0.35, -y+1/2, x+0.05'
   '-z+0.85, y+0.7, -x+0.15'
   '-z+0.8, y+3/4, x+0.15'
   'z+0.2, -y+0.45, -x+0.05'
   '-z+0.9, -y+0.4, -x+0.1'
   'z+0.3, y+0.6, x+0.1'
   'x+0.1, y+0.7, z+0.2'
   '-x+0.1, -y+1/2, -z+0.8'
   '-x+0.05, -y+0.55, z+0.3'
   'x+0.15, y+0.65, -z+0.9'
   '-x+0.15, y+0.6, -z+0.95'
   'x+0.05, -y+0.4, z+1/4'
   'x, -y+0.45, -z+0.85'
   '-x, y+3/4, z+0.35'
   'z+0.3, x+0.1, y+0.6'
   '-z+0.9, -x+0.1, -y+0.4'
   'z+0.2, -x+0.05, -y+0.45'
   '-z+0.8, x+0.15, y+3/4'
   '-z+0.85, -x+0.15, y+0.7'
   'z+0.35, x+0.05, -y+1/2'
   '-z+0.95, x, -y+0.55'
   'z+1/4, -x, y+0.65'
   'y+0.7, z+0.3, x'
   '-y+1/2, -z+0.9, -x'
   '-y+0.55, z+0.2, -x+0.15'
   'y+0.65, -z+0.8, x+0.05'
   'y+0.6, -z+0.85, -x+0.05'
   '-y+0.4, z+0.35, x+0.15'
   '-y+0.45, -z+0.95, x+0.1'
   'y+3/4, z+1/4, -x+0.1'
   'y+0.65, x+0.15, -z+0.9'
   '-y+0.55, -x+0.05, z+0.3'
   '-y+1/2, -x+0.1, -z+0.8'
   'y+0.7, x+0.1, z+0.2'
   'y+3/4, -x, z+0.35'
   '-y+0.45, x, -z+0.85'
   '-y+0.4, x+0.05, z+1/4'
   'y+0.6, -x+0.15, -z+0.95'
   'x+0.05, z+0.35, -y+1/2'
   '-x+0.15, -z+0.85, y+0.7'
   '-x, z+1/4, y+0.65'
   'x, -z+0.95, -y+0.55'
   '-x+0.1, -z+0.9, -y+0.4'
   'x+0.1, z+0.3, y+0.6'
   'x+0.15, -z+0.8, y+3/4'
   '-x+0.05, z+0.2, -y+0.45'
   'z+1/4, y+3/4, -x+0.1'
   '-z+0.95, -y+0.45, x+0.1'
   'z+0.35, -y+0.4, x+0.15'
   '-z+0.85, y+0.6, -x+0.05'
   '-z+0.8, y+0.65, x+0.05'
   'z+0.2, -y+0.55, -x+0.15'
   '-z+0.9, -y+1/2, -x'
   'z+0.3, y+0.7, x'
   'x, y+0.6, z+0.4'
   '-x, -y+0.4, -z+0.6'
   '-x+0.15, -y+0.45, z+1/2'
   'x+0.05, y+3/4, -z+0.7'
   '-x+0.05, y+0.7, -z+3/4'
   'x+0.15, -y+1/2, z+0.45'
   'x+0.1, -y+0.55, -z+0.65'
   '-x+0.1, y+0.65, z+0.55'
   'z+0.4, x, y+0.6'
   '-z+0.6, -x, -y+0.4'
   'z+1/2, -x+0.15, -y+0.45'
   '-z+0.7, x+0.05, y+3/4'
   '-z+3/4, -x+0.05, y+0.7'
   'z+0.45, x+0.15, -y+1/2'
   '-z+0.65, x+0.1, -y+0.55'
   'z+0.55, -x+0.1, y+0.65'
   'y+0.6, z+0.4, x'
   '-y+0.4, -z+0.6, -x'
   '-y+0.45, z+1/2, -x+0.15'
   'y+3/4, -z+0.7, x+0.05'
   'y+0.7, -z+3/4, -x+0.05'
   '-y+1/2, z+0.45, x+0.15'
   '-y+0.55, -z+0.65, x+0.1'
   'y+0.65, z+0.55, -x+0.1'
   'y+3/4, x+0.05, -z+0.7'
   '-y+0.45, -x+0.15, z+1/2'
   '-y+0.4, -x, -z+0.6'
   'y+0.6, x, z+0.4'
   'y+0.65, -x+0.1, z+0.55'
   '-y+0.55, x+0.1, -z+0.65'
   '-y+1/2, x+0.15, z+0.45'
   'y+0.7, -x+0.05, -z+3/4'
   'x+0.15, z+0.45, -y+1/2'
   '-x+0.05, -z+3/4, y+0.7'
   '-x+0.1, z+0.55, y+0.65'
   'x+0.1, -z+0.65, -y+0.55'
   '-x, -z+0.6, -y+0.4'
   'x, z+0.4, y+0.6'
   'x+0.05, -z+0.7, y+3/4'
   '-x+0.15, z+1/2, -y+0.45'
   'z+0.55, y+0.65, -x+0.1'
   '-z+0.65, -y+0.55, x+0.1'
   'z+0.45, -y+1/2, x+0.15'
   '-z+3/4, y+0.7, -x+0.05'
   '-z+0.7, y+3/4, x+0.05'
   'z+1/2, -y+0.45, -x+0.15'
   '-z+0.6, -y+0.4, -x'
   'z+0.4, y+0.6, x'
   'x, y+0.7, z+1/2'
   '-x, -y+1/2, -z+0.7'
   '-x+0.15, -y+0.55, z+0.4'
   'x+0.05, y+0.65, -z+0.6'
   '-x+0.05, y+0.6, -z+0.65'
   'x+0.15, -y+0.4, z+0.55'
   'x+0.1, -y+0.45, -z+3/4'
   '-x+0.1, y+3/4, z+0.45'
   'z+0.4, x+0.1, y+0.7'
   '-z+0.6, -x+0.1, -y+1/2'
   'z+1/2, -x+0.05, -y+0.55'
   '-z+0.7, x+0.15, y+0.65'
   '-z+3/4, -x+0.15, y+0.6'
   'z+0.45, x+0.05, -y+0.4'
   '-z+0.65, x, -y+0.45'
   'z+0.55, -x, y+3/4'
   'y+0.6, z+1/2, x+0.1'
   '-y+0.4, -z+0.7, -x+0.1'
   '-y+0.45, z+0.4, -x+0.05'
   'y+3/4, -z+0.6, x+0.15'
   'y+0.7, -z+0.65, -x+0.15'
   '-y+1/2, z+0.55, x+0.05'
   '-y+0.55, -z+3/4, x'
   'y+0.65, z+0.45, -x'
   'y+3/4, x+0.15, -z+0.6'
   '-y+0.45, -x+0.05, z+0.4'
   '-y+0.4, -x+0.1, -z+0.7'
   'y+0.6, x+0.1, z+1/2'
   'y+0.65, -x, z+0.45'
   '-y+0.55, x, -z+3/4'
   '-y+1/2, x+0.05, z+0.55'
   'y+0.7, -x+0.15, -z+0.65'
   'x+0.15, z+0.55, -y+0.4'
   '-x+0.05, -z+0.65, y+0.6'
   '-x+0.1, z+0.45, y+3/4'
   'x+0.1, -z+3/4, -y+0.45'
   '-x, -z+0.7, -y+1/2'
   'x, z+1/2, y+0.7'
   'x+0.05, -z+0.6, y+0.65'
   '-x+0.15, z+0.4, -y+0.55'
   'z+0.55, y+3/4, -x'
   '-z+0.65, -y+0.45, x'
   'z+0.45, -y+0.4, x+0.05'
   '-z+3/4, y+0.6, -x+0.15'
   '-z+0.7, y+0.65, x+0.15'
   'z+1/2, -y+0.55, -x+0.05'
   '-z+0.6, -y+1/2, -x+0.1'
   'z+0.4, y+0.7, x+0.1'
   'x+0.1, y+0.6, z+1/2'
   '-x+0.1, -y+0.4, -z+0.7'
   '-x+0.05, -y+0.45, z+0.4'
   'x+0.15, y+3/4, -z+0.6'
   '-x+0.15, y+0.7, -z+0.65'
   'x+0.05, -y+1/2, z+0.55'
   'x, -y+0.55, -z+3/4'
   '-x, y+0.65, z+0.45'
   'z+1/2, x, y+0.7'
   '-z+0.7, -x, -y+1/2'
   'z+0.4, -x+0.15, -y+0.55'
   '-z+0.6, x+0.05, y+0.65'
   '-z+0.65, -x+0.05, y+0.6'
   'z+0.55, x+0.15, -y+0.4'
   '-z+3/4, x+0.1, -y+0.45'
   'z+0.45, -x+0.1, y+3/4'
   'y+0.7, z+0.4, x+0.1'
   '-y+1/2, -z+0.6, -x+0.1'
   '-y+0.55, z+1/2, -x+0.05'
   'y+0.65, -z+0.7, x+0.15'
   'y+0.6, -z+3/4, -x+0.15'
   '-y+0.4, z+0.45, x+0.05'
   '-y+0.45, -z+0.65, x'
   'y+3/4, z+0.55, -x'
   'y+0.65, x+0.05, -z+0.6'
   '-y+0.55, -x+0.15, z+0.4'
   '-y+1/2, -x, -z+0.7'
   'y+0.7, x, z+1/2'
   'y+3/4, -x+0.1, z+0.45'
   '-y+0.45, x+0.1, -z+3/4'
   '-y+0.4, x+0.15, z+0.55'
   'y+0.6, -x+0.05, -z+0.65'
   'x+0.05, z+0.45, -y+0.4'
   '-x+0.15, -z+3/4, y+0.6'
   '-x, z+0.55, y+3/4'
   'x, -z+0.65, -y+0.45'
   '-x+0.1, -z+0.6, -y+1/2'
   'x+0.1, z+0.4, y+0.7'
   'x+0.15, -z+0.7, y+0.65'
   '-x+0.05, z+1/2, -y+0.55'
   'z+0.45, y+0.65, -x'
   '-z+3/4, -y+0.55, x'
   'z+0.55, -y+1/2, x+0.05'
   '-z+0.65, y+0.7, -x+0.15'
   '-z+0.6, y+3/4, x+0.15'
   'z+0.4, -y+0.45, -x+0.05'
   '-z+0.7, -y+0.4, -x+0.1'
   'z+1/2, y+0.6, x+0.1'
   'x+0.1, y+0.7, z+0.4'
   '-x+0.1, -y+1/2, -z+0.6'
   '-x+0.05, -y+0.55, z+1/2'
   'x+0.15, y+0.65, -z+0.7'
   '-x+0.15, y+0.6, -z+3/4'
   'x+0.05, -y+0.4, z+0.45'
   'x, -y+0.45, -z+0.65'
   '-x, y+3/4, z+0.55'
   'z+1/2, x+0.1, y+0.6'
   '-z+0.7, -x+0.1, -y+0.4'
   'z+0.4, -x+0.05, -y+0.45'
   '-z+0.6, x+0.15, y+3/4'
   '-z+0.65, -x+0.15, y+0.7'
   'z+0.55, x+0.05, -y+1/2'
   '-z+3/4, x, -y+0.55'
   'z+0.45, -x, y+0.65'
   'y+0.7, z+1/2, x'
   '-y+1/2, -z+0.7, -x'
   '-y+0.55, z+0.4, -x+0.15'
   'y+0.65, -z+0.6, x+0.05'
   'y+0.6, -z+0.65, -x+0.05'
   '-y+0.4, z+0.55, x+0.15'
   '-y+0.45, -z+3/4, x+0.1'
   'y+3/4, z+0.45, -x+0.1'
   'y+0.65, x+0.15, -z+0.7'
   '-y+0.55, -x+0.05, z+1/2'
   '-y+1/2, -x+0.1, -z+0.6'
   'y+0.7, x+0.1, z+0.4'
   'y+3/4, -x, z+0.55'
   '-y+0.45, x, -z+0.65'
   '-y+0.4, x+0.05, z+0.45'
   'y+0.6, -x+0.15, -z+3/4'
   'x+0.05, z+0.55, -y+1/2'
   '-x+0.15, -z+0.65, y+0.7'
   '-x, z+0.45, y+0.65'
   'x, -z+3/4, -y+0.55'
   '-x+0.1, -z+0.7, -y+0.4'
   'x+0.1, z+1/2, y+0.6'
   'x+0.15, -z+0.6, y+3/4'
   '-x+0.05, z+0.4, -y+0.45'
   'z+0.45, y+3/4, -x+0.1'
   '-z+3/4, -y+0.45, x+0.1'
   'z+0.55, -y+0.4, x+0.15'
   '-z+0.65, y+0.6, -x+0.05'
   '-z+0.6, y+0.65, x+0.05'
   'z+0.4, -y+0.55, -x+0.15'
   '-z+0.7, -y+1/2, -x'
   'z+1/2, y+0.7, x'
   'x, y+0.6, z+0.6'
   '-x, -y+0.4, -z+0.4'
   '-x+0.15, -y+0.45, z+0.7'
   'x+0.05, y+3/4, -z+1/2'
   '-x+0.05, y+0.7, -z+0.55'
   'x+0.15, -y+1/2, z+0.65'
   'x+0.1, -y+0.55, -z+0.45'
   '-x+0.1, y+0.65, z+3/4'
   'z+0.6, x, y+0.6'
   '-z+0.4, -x, -y+0.4'
   'z+0.7, -x+0.15, -y+0.45'
   '-z+1/2, x+0.05, y+3/4'
   '-z+0.55, -x+0.05, y+0.7'
   'z+0.65, x+0.15, -y+1/2'
   '-z+0.45, x+0.1, -y+0.55'
   'z+3/4, -x+0.1, y+0.65'
   'y+0.6, z+0.6, x'
   '-y+0.4, -z+0.4, -x'
   '-y+0.45, z+0.7, -x+0.15'
   'y+3/4, -z+1/2, x+0.05'
   'y+0.7, -z+0.55, -x+0.05'
   '-y+1/2, z+0.65, x+0.15'
   '-y+0.55, -z+0.45, x+0.1'
   'y+0.65, z+3/4, -x+0.1'
   'y+3/4, x+0.05, -z+1/2'
   '-y+0.45, -x+0.15, z+0.7'
   '-y+0.4, -x, -z+0.4'
   'y+0.6, x, z+0.6'
   'y+0.65, -x+0.1, z+3/4'
   '-y+0.55, x+0.1, -z+0.45'
   '-y+1/2, x+0.15, z+0.65'
   'y+0.7, -x+0.05, -z+0.55'
   'x+0.15, z+0.65, -y+1/2'
   '-x+0.05, -z+0.55, y+0.7'
   '-x+0.1, z+3/4, y+0.65'
   'x+0.1, -z+0.45, -y+0.55'
   '-x, -z+0.4, -y+0.4'
   'x, z+0.6, y+0.6'
   'x+0.05, -z+1/2, y+3/4'
   '-x+0.15, z+0.7, -y+0.45'
   'z+3/4, y+0.65, -x+0.1'
   '-z+0.45, -y+0.55, x+0.1'
   'z+0.65, -y+1/2, x+0.15'
   '-z+0.55, y+0.7, -x+0.05'
   '-z+1/2, y+3/4, x+0.05'
   'z+0.7, -y+0.45, -x+0.15'
   '-z+0.4, -y+0.4, -x'
   'z+0.6, y+0.6, x'
   'x, y+0.7, z+0.7'
   '-x, -y+1/2, -z+1/2'
   '-x+0.15, -y+0.55, z+0.6'
   'x+0.05, y+0.65, -z+0.4'
   '-x+0.05, y+0.6, -z+0.45'
   'x+0.15, -y+0.4, z+3/4'
   'x+0.1, -y+0.45, -z+0.55'
   '-x+0.1, y+3/4, z+0.65'
   'z+0.6, x+0.1, y+0.7'
   '-z+0.4, -x+0.1, -y+1/2'
   'z+0.7, -x+0.05, -y+0.55'
   '-z+1/2, x+0.15, y+0.65'
   '-z+0.55, -x+0.15, y+0.6'
   'z+0.65, x+0.05, -y+0.4'
   '-z+0.45, x, -y+0.45'
   'z+3/4, -x, y+3/4'
   'y+0.6, z+0.7, x+0.1'
   '-y+0.4, -z+1/2, -x+0.1'
   '-y+0.45, z+0.6, -x+0.05'
   'y+3/4, -z+0.4, x+0.15'
   'y+0.7, -z+0.45, -x+0.15'
   '-y+1/2, z+3/4, x+0.05'
   '-y+0.55, -z+0.55, x'
   'y+0.65, z+0.65, -x'
   'y+3/4, x+0.15, -z+0.4'
   '-y+0.45, -x+0.05, z+0.6'
   '-y+0.4, -x+0.1, -z+1/2'
   'y+0.6, x+0.1, z+0.7'
   'y+0.65, -x, z+0.65'
   '-y+0.55, x, -z+0.55'
   '-y+1/2, x+0.05, z+3/4'
   'y+0.7, -x+0.15, -z+0.45'
   'x+0.15, z+3/4, -y+0.4'
   '-x+0.05, -z+0.45, y+0.6'
   '-x+0.1, z+0.65, y+3/4'
   'x+0.1, -z+0.55, -y+0.45'
   '-x, -z+1/2, -y+1/2'
   'x, z+0.7, y+0.7'
   'x+0.05, -z+0.4, y+0.65'
   '-x+0.15, z+0.6, -y+0.55'
   'z+3/4, y+3/4, -x'
   '-z+0.45, -y+0.45, x'
   'z+0.65, -y+0.4, x+0.05'
   '-z+0.55, y+0.6, -x+0.15'
   '-z+1/2, y+0.65, x+0.15'
   'z+0.7, -y+0.55, -x+0.05'
   '-z+0.4, -y+1/2, -x+0.1'
   'z+0.6, y+0.7, x+0.1'
   'x+0.1, y+0.6, z+0.7'
   '-x+0.1, -y+0.4, -z+1/2'
   '-x+0.05, -y+0.45, z+0.6'
   'x+0.15, y+3/4, -z+0.4'
   '-x+0.15, y+0.7, -z+0.45'
   'x+0.05, -y+1/2, z+3/4'
   'x, -y+0.55, -z+0.55'
   '-x, y+0.65, z+0.65'
   'z+0.7, x, y+0.7'
   '-z+1/2, -x, -y+1/2'
   'z+0.6, -x+0.15, -y+0.55'
   '-z+0.4, x+0.05, y+0.65'
   '-z+0.45, -x+0.05, y+0.6'
   'z+3/4, x+0.15, -y+0.4'
   '-z+0.55, x+0.1, -y+0.45'
   'z+0.65, -x+0.1, y+3/4'
   'y+0.7, z+0.6, x+0.1'
   '-y+1/2, -z+0.4, -x+0.1'
   '-y+0.55, z+0.7, -x+0.05'
   'y+0.65, -z+1/2, x+0.15'
   'y+0.6, -z+0.55, -x+0.15'
   '-y+0.4, z+0.65, x+0.05'
   '-y+0.45, -z+0.45, x'
   'y+3/4, z+3/4, -x'
   'y+0.65, x+0.05, -z+0.4'
   '-y+0.55, -x+0.15, z+0.6'
   '-y+1/2, -x, -z+1/2'
   'y+0.7, x, z+0.7'
   'y+3/4, -x+0.1, z+0.65'
   '-y+0.45, x+0.1, -z+0.55'
   '-y+0.4, x+0.15, z+3/4'
   'y+0.6, -x+0.05, -z+0.45'
   'x+0.05, z+0.65, -y+0.4'
   '-x+0.15, -z+0.55, y+0.6'
   '-x, z+3/4, y+3/4'
   'x, -z+0.45, -y+0.45'
   '-x+0.1, -z+0.4, -y+1/2'
   'x+0.1, z+0.6, y+0.7'
   'x+0.15, -z+1/2, y+0.65'
   '-x+0.05, z+0.7, -y+0.55'
   'z+0.65, y+0.65, -x'
   '-z+0.55, -y+0.55, x'
   'z+3/4, -y+1/2, x+0.05'
   '-z+0.45, y+0.7, -x+0.15'
   '-z+0.4, y+3/4, x+0.15'
   'z+0.6, -y+0.45, -x+0.05'
   '-z+1/2, -y+0.4, -x+0.1'
   'z+0.7, y+0.6, x+0.1'
   'x+0.1, y+0.7, z+0.6'
   '-x+0.1, -y+1/2, -z+0.4'
   '-x+0.05, -y+0.55, z+0.7'
   'x+0.15, y+0.65, -z+1/2'
   '-x+0.15, y+0.6, -z+0.55'
   'x+0.05, -y+0.4, z+0.65'
   'x, -y+0.45, -z+0.45'
   '-x, y+3/4, z+3/4'
   'z+0.7, x+0.1, y+0.6'
   '-z+1/2, -x+0.1, -y+0.4'
   'z+0.6, -x+0.05, -y+0.45'
   '-z+0.4, x+0.15, y+3/4'
   '-z+0.45, -x+0.15, y+0.7'
   'z+3/4, x+0.05, -y+1/2'
   '-z+0.55, x, -y+0.55'
   'z+0.65, -x, y+0.65'
   'y+0.7, z+0.7, x'
   '-y+1/2, -z+1/2, -x'
   '-y+0.55, z+0.6, -x+0.15'
   'y+0.65, -z+0.4, x+0.05'
   'y+0.6, -z+0.45, -x+0.05'
   '-y+0.4, z+3/4, x+0.15'
   '-y+0.45, -z+0.55, x+0.1'
   'y+3/4, z+0.65, -x+0.1'
   'y+0.65, x+0.15, -z+1/2'
   '-y+0.55, -x+0.05, z+0.7'
   '-y+1/2, -x+0.1, -z+0.4'
   'y+0.7, x+0.1, z+0.6'
   'y+3/4, -x, z+3/4'
   '-y+0.45, x, -z+0.45'
   '-y+0.4, x+0.05, z+0.65'
   'y+0.6, -x+0.15, -z+0.55'
   'x+0.05, z+3/4, -y+1/2'
   '-x+0.15, -z+0.45, y+0.7'
   '-x, z+0.65, y+0.65'
   'x, -z+0.55, -y+0.55'
   '-x+0.1, -z+1/2, -y+0.4'
   'x+0.1, z+0.7, y+0.6'
   'x+0.15, -z+0.4, y+3/4'
   '-x+0.05, z+0.6, -y+0.45'
   'z+0.65, y+3/4, -x+0.1'
   '-z+0.55, -y+0.45, x+0.1'
   'z+3/4, -y+0.4, x+0.15'
   '-z+0.45, y+0.6, -x+0.05'
   '-z+0.4, y+0.65, x+0.05'
   'z+0.6, -y+0.55, -x+0.15'
   '-z+1/2, -y+1/2, -x'
   'z+0.7, y+0.7, x'
   'x, y+0.6, z+0.8'
   '-x, -y+0.4, -z+0.2'
   '-x+0.15, -y+0.45, z+0.9'
   'x+0.05, y+3/4, -z+0.3'
   '-x+0.05, y+0.7, -z+0.35'
   'x+0.15, -y+1/2, z+0.85'
   'x+0.1, -y+0.55, -z+1/4'
   '-x+0.1, y+0.65, z+0.95'
   'z+0.8, x, y+0.6'
   '-z+0.2, -x, -y+0.4'
   'z+0.9, -x+0.15, -y+0.45'
   '-z+0.3, x+0.05, y+3/4'
   '-z+0.35, -x+0.05, y+0.7'
   'z+0.85, x+0.15, -y+1/2'
   '-z+1/4, x+0.1, -y+0.55'
   'z+0.95, -x+0.1, y+0.65'
   'y+0.6, z+0.8, x'
   '-y+0.4, -z+0.2, -x'
   '-y+0.45, z+0.9, -x+0.15'
   'y+3/4, -z+0.3, x+0.05'
   'y+0.7, -z+0.35, -x+0.05'
   '-y+1/2, z+0.85, x+0.15'
   '-y+0.55, -z+1/4, x+0.1'
   'y+0.65, z+0.95, -x+0.1'
   'y+3/4, x+0.05, -z+0.3'
   '-y+0.45, -x+0.15, z+0.9'
   '-y+0.4, -x, -z+0.2'
   'y+0.6, x, z+0.8'
   'y+0.65, -x+0.1, z+0.95'
   '-y+0.55, x+0.1, -z+1/4'
   '-y+1/2, x+0.15, z+0.85'
   'y+0.7, -x+0.05, -z+0.35'
   'x+0.15, z+0.85, -y+1/2'
   '-x+0.05, -z+0.35, y+0.7'
   '-x+0.1, z+0.95, y+0.65'
   'x+0.1, -z+1/4, -y+0.55'
   '-x, -z+0.2, -y+0.4'
   'x, z+0.8, y+0.6'
   'x+0.05, -z+0.3, y+3/4'
   '-x+0.15, z+0.9, -y+0.45'
   'z+0.95, y+0.65, -x+0.1'
   '-z+1/4, -y+0.55, x+0.1'
   'z+0.85, -y+1/2, x+0.15'
   '-z+0.35, y+0.7, -x+0.05'
   '-z+0.3, y+3/4, x+0.05'
   'z+0.9, -y+0.45, -x+0.15'
   '-z+0.2, -y+0.4, -x'
   'z+0.8, y+0.6, x'
   'x, y+0.7, z+0.9'
   '-x, -y+1/2, -z+0.3'
   '-x+0.15, -y+0.55, z+0.8'
   'x+0.05, y+0.65, -z+0.2'
   '-x+0.05, y+0.6, -z+1/4'
   'x+0.15, -y+0.4, z+0.95'
   'x+0.1, -y+0.45, -z+0.35'
   '-x+0.1, y+3/4, z+0.85'
   'z+0.8, x+0.1, y+0.7'
   '-z+0.2, -x+0.1, -y+1/2'
   'z+0.9, -x+0.05, -y+0.55'
   '-z+0.3, x+0.15, y+0.65'
   '-z+0.35, -x+0.15, y+0.6'
   'z+0.85, x+0.05, -y+0.4'
   '-z+1/4, x, -y+0.45'
   'z+0.95, -x, y+3/4'
   'y+0.6, z+0.9, x+0.1'
   '-y+0.4, -z+0.3, -x+0.1'
   '-y+0.45, z+0.8, -x+0.05'
   'y+3/4, -z+0.2, x+0.15'
   'y+0.7, -z+1/4, -x+0.15'
   '-y+1/2, z+0.95, x+0.05'
   '-y+0.55, -z+0.35, x'
   'y+0.65, z+0.85, -x'
   'y+3/4, x+0.15, -z+0.2'
   '-y+0.45, -x+0.05, z+0.8'
   '-y+0.4, -x+0.1, -z+0.3'
   'y+0.6, x+0.1, z+0.9'
   'y+0.65, -x, z+0.85'
   '-y+0.55, x, -z+0.35'
   '-y+1/2, x+0.05, z+0.95'
   'y+0.7, -x+0.15, -z+1/4'
   'x+0.15, z+0.95, -y+0.4'
   '-x+0.05, -z+1/4, y+0.6'
   '-x+0.1, z+0.85, y+3/4'
   'x+0.1, -z+0.35, -y+0.45'
   '-x, -z+0.3, -y+1/2'
   'x, z+0.9, y+0.7'
   'x+0.05, -z+0.2, y+0.65'
   '-x+0.15, z+0.8, -y+0.55'
   'z+0.95, y+3/4, -x'
   '-z+1/4, -y+0.45, x'
   'z+0.85, -y+0.4, x+0.05'
   '-z+0.35, y+0.6, -x+0.15'
   '-z+0.3, y+0.65, x+0.15'
   'z+0.9, -y+0.55, -x+0.05'
   '-z+0.2, -y+1/2, -x+0.1'
   'z+0.8, y+0.7, x+0.1'
   'x+0.1, y+0.6, z+0.9'
   '-x+0.1, -y+0.4, -z+0.3'
   '-x+0.05, -y+0.45, z+0.8'
   'x+0.15, y+3/4, -z+0.2'
   '-x+0.15, y+0.7, -z+1/4'
   'x+0.05, -y+1/2, z+0.95'
   'x, -y+0.55, -z+0.35'
   '-x, y+0.65, z+0.85'
   'z+0.9, x, y+0.7'
   '-z+0.3, -x, -y+1/2'
   'z+0.8, -x+0.15, -y+0.55'
   '-z+0.2, x+0.05, y+0.65'
   '-z+1/4, -x+0.05, y+0.6'
   'z+0.95, x+0.15, -y+0.4'
   '-z+0.35, x+0.1, -y+0.45'
   'z+0.85, -x+0.1, y+3/4'
   'y+0.7, z+0.8, x+0.1'
   '-y+1/2, -z+0.2, -x+0.1'
   '-y+0.55, z+0.9, -x+0.05'
   'y+0.65, -z+0.3, x+0.15'
   'y+0.6, -z+0.35, -x+0.15'
   '-y+0.4, z+0.85, x+0.05'
   '-y+0.45, -z+1/4, x'
   'y+3/4, z+0.95, -x'
   'y+0.65, x+0.05, -z+0.2'
   '-y+0.55, -x+0.15, z+0.8'
   '-y+1/2, -x, -z+0.3'
   'y+0.7, x, z+0.9'
   'y+3/4, -x+0.1, z+0.85'
   '-y+0.45, x+0.1, -z+0.35'
   '-y+0.4, x+0.15, z+0.95'
   'y+0.6, -x+0.05, -z+1/4'
   'x+0.05, z+0.85, -y+0.4'
   '-x+0.15, -z+0.35, y+0.6'
   '-x, z+0.95, y+3/4'
   'x, -z+1/4, -y+0.45'
   '-x+0.1, -z+0.2, -y+1/2'
   'x+0.1, z+0.8, y+0.7'
   'x+0.15, -z+0.3, y+0.65'
   '-x+0.05, z+0.9, -y+0.55'
   'z+0.85, y+0.65, -x'
   '-z+0.35, -y+0.55, x'
   'z+0.95, -y+1/2, x+0.05'
   '-z+1/4, y+0.7, -x+0.15'
   '-z+0.2, y+3/4, x+0.15'
   'z+0.8, -y+0.45, -x+0.05'
   '-z+0.3, -y+0.4, -x+0.1'
   'z+0.9, y+0.6, x+0.1'
   'x+0.1, y+0.7, z+0.8'
   '-x+0.1, -y+1/2, -z+0.2'
   '-x+0.05, -y+0.55, z+0.9'
   'x+0.15, y+0.65, -z+0.3'
   '-x+0.15, y+0.6, -z+0.35'
   'x+0.05, -y+0.4, z+0.85'
   'x, -y+0.45, -z+1/4'
   '-x, y+3/4, z+0.95'
   'z+0.9, x+0.1, y+0.6'
   '-z+0.3, -x+0.1, -y+0.4'
   'z+0.8, -x+0.05, -y+0.45'
   '-z+0.2, x+0.15, y+3/4'
   '-z+1/4, -x+0.15, y+0.7'
   'z+0.95, x+0.05, -y+1/2'
   '-z+0.35, x, -y+0.55'
   'z+0.85, -x, y+0.65'
   'y+0.7, z+0.9, x'
   '-y+1/2, -z+0.3, -x'
   '-y+0.55, z+0.8, -x+0.15'
   'y+0.65, -z+0.2, x+0.05'
   'y+0.6, -z+1/4, -x+0.05'
   '-y+0.4, z+0.95, x+0.15'
   '-y+0.45, -z+0.35, x+0.1'
   'y+3/4, z+0.85, -x+0.1'
   'y+0.65, x+0.15, -z+0.3'
   '-y+0.55, -x+0.05, z+0.9'
   '-y+1/2, -x+0.1, -z+0.2'
   'y+0.7, x+0.1, z+0.8'
   'y+3/4, -x, z+0.95'
   '-y+0.45, x, -z+1/4'
   '-y+0.4, x+0.05, z+0.85'
   'y+0.6, -x+0.15, -z+0.35'
   'x+0.05, z+0.95, -y+1/2'
   '-x+0.15, -z+1/4, y+0.7'
   '-x, z+0.85, y+0.65'
   'x, -z+0.35, -y+0.55'
   '-x+0.1, -z+0.3, -y+0.4'
   'x+0.1, z+0.9, y+0.6'
   'x+0.15, -z+0.2, y+3/4'
   '-x+0.05, z+0.8, -y+0.45'
   'z+0.85, y+3/4, -x+0.1'
   '-z+0.35, -y+0.45, x+0.1'
   'z+0.95, -y+0.4, x+0.15'
   '-z+1/4, y+0.6, -x+0.05'
   '-z+0.2, y+0.65, x+0.05'
   'z+0.8, -y+0.55, -x+0.15'
   '-z+0.3, -y+1/2, -x'
   'z+0.9, y+0.7, x'
   'x, y+0.8, z'
   '-x, -y+0.2, -z'
   '-x+0.15, -y+1/4, z+0.1'
   'x+0.05, y+0.95, -z+0.1'
   '-x+0.05, y+0.9, -z+0.15'
   'x+0.15, -y+0.3, z+0.05'
   'x+0.1, -y+0.35, -z+0.05'
   '-x+0.1, y+0.85, z+0.15'
   'z, x, y+0.8'
   '-z, -x, -y+0.2'
   'z+0.1, -x+0.15, -y+1/4'
   '-z+0.1, x+0.05, y+0.95'
   '-z+0.15, -x+0.05, y+0.9'
   'z+0.05, x+0.15, -y+0.3'
   '-z+0.05, x+0.1, -y+0.35'
   'z+0.15, -x+0.1, y+0.85'
   'y+0.8, z, x'
   '-y+0.2, -z, -x'
   '-y+1/4, z+0.1, -x+0.15'
   'y+0.95, -z+0.1, x+0.05'
   'y+0.9, -z+0.15, -x+0.05'
   '-y+0.3, z+0.05, x+0.15'
   '-y+0.35, -z+0.05, x+0.1'
   'y+0.85, z+0.15, -x+0.1'
   'y+0.95, x+0.05, -z+0.1'
   '-y+1/4, -x+0.15, z+0.1'
   '-y+0.2, -x, -z'
   'y+0.8, x, z'
   'y+0.85, -x+0.1, z+0.15'
   '-y+0.35, x+0.1, -z+0.05'
   '-y+0.3, x+0.15, z+0.05'
   'y+0.9, -x+0.05, -z+0.15'
   'x+0.15, z+0.05, -y+0.3'
   '-x+0.05, -z+0.15, y+0.9'
   '-x+0.1, z+0.15, y+0.85'
   'x+0.1, -z+0.05, -y+0.35'
   '-x, -z, -y+0.2'
   'x, z, y+0.8'
   'x+0.05, -z+0.1, y+0.95'
   '-x+0.15, z+0.1, -y+1/4'
   'z+0.15, y+0.85, -x+0.1'
   '-z+0.05, -y+0.35, x+0.1'
   'z+0.05, -y+0.3, x+0.15'
   '-z+0.15, y+0.9, -x+0.05'
   '-z+0.1, y+0.95, x+0.05'
   'z+0.1, -y+1/4, -x+0.15'
   '-z, -y+0.2, -x'
   'z, y+0.8, x'
   'x, y+0.9, z+0.1'
   '-x, -y+0.3, -z+0.1'
   '-x+0.15, -y+0.35, z'
   'x+0.05, y+0.85, -z'
   '-x+0.05, y+0.8, -z+0.05'
   'x+0.15, -y+0.2, z+0.15'
   'x+0.1, -y+1/4, -z+0.15'
   '-x+0.1, y+0.95, z+0.05'
   'z, x+0.1, y+0.9'
   '-z, -x+0.1, -y+0.3'
   'z+0.1, -x+0.05, -y+0.35'
   '-z+0.1, x+0.15, y+0.85'
   '-z+0.15, -x+0.15, y+0.8'
   'z+0.05, x+0.05, -y+0.2'
   '-z+0.05, x, -y+1/4'
   'z+0.15, -x, y+0.95'
   'y+0.8, z+0.1, x+0.1'
   '-y+0.2, -z+0.1, -x+0.1'
   '-y+1/4, z, -x+0.05'
   'y+0.95, -z, x+0.15'
   'y+0.9, -z+0.05, -x+0.15'
   '-y+0.3, z+0.15, x+0.05'
   '-y+0.35, -z+0.15, x'
   'y+0.85, z+0.05, -x'
   'y+0.95, x+0.15, -z'
   '-y+1/4, -x+0.05, z'
   '-y+0.2, -x+0.1, -z+0.1'
   'y+0.8, x+0.1, z+0.1'
   'y+0.85, -x, z+0.05'
   '-y+0.35, x, -z+0.15'
   '-y+0.3, x+0.05, z+0.15'
   'y+0.9, -x+0.15, -z+0.05'
   'x+0.15, z+0.15, -y+0.2'
   '-x+0.05, -z+0.05, y+0.8'
   '-x+0.1, z+0.05, y+0.95'
   'x+0.1, -z+0.15, -y+1/4'
   '-x, -z+0.1, -y+0.3'
   'x, z+0.1, y+0.9'
   'x+0.05, -z, y+0.85'
   '-x+0.15, z, -y+0.35'
   'z+0.15, y+0.95, -x'
   '-z+0.05, -y+1/4, x'
   'z+0.05, -y+0.2, x+0.05'
   '-z+0.15, y+0.8, -x+0.15'
   '-z+0.1, y+0.85, x+0.15'
   'z+0.1, -y+0.35, -x+0.05'
   '-z, -y+0.3, -x+0.1'
   'z, y+0.9, x+0.1'
   'x+0.1, y+0.8, z+0.1'
   '-x+0.1, -y+0.2, -z+0.1'
   '-x+0.05, -y+1/4, z'
   'x+0.15, y+0.95, -z'
   '-x+0.15, y+0.9, -z+0.05'
   'x+0.05, -y+0.3, z+0.15'
   'x, -y+0.35, -z+0.15'
   '-x, y+0.85, z+0.05'
   'z+0.1, x, y+0.9'
   '-z+0.1, -x, -y+0.3'
   'z, -x+0.15, -y+0.35'
   '-z, x+0.05, y+0.85'
   '-z+0.05, -x+0.05, y+0.8'
   'z+0.15, x+0.15, -y+0.2'
   '-z+0.15, x+0.1, -y+1/4'
   'z+0.05, -x+0.1, y+0.95'
   'y+0.9, z, x+0.1'
   '-y+0.3, -z, -x+0.1'
   '-y+0.35, z+0.1, -x+0.05'
   'y+0.85, -z+0.1, x+0.15'
   'y+0.8, -z+0.15, -x+0.15'
   '-y+0.2, z+0.05, x+0.05'
   '-y+1/4, -z+0.05, x'
   'y+0.95, z+0.15, -x'
   'y+0.85, x+0.05, -z'
   '-y+0.35, -x+0.15, z'
   '-y+0.3, -x, -z+0.1'
   'y+0.9, x, z+0.1'
   'y+0.95, -x+0.1, z+0.05'
   '-y+1/4, x+0.1, -z+0.15'
   '-y+0.2, x+0.15, z+0.15'
   'y+0.8, -x+0.05, -z+0.05'
   'x+0.05, z+0.05, -y+0.2'
   '-x+0.15, -z+0.15, y+0.8'
   '-x, z+0.15, y+0.95'
   'x, -z+0.05, -y+1/4'
   '-x+0.1, -z, -y+0.3'
   'x+0.1, z, y+0.9'
   'x+0.15, -z+0.1, y+0.85'
   '-x+0.05, z+0.1, -y+0.35'
   'z+0.05, y+0.85, -x'
   '-z+0.15, -y+0.35, x'
   'z+0.15, -y+0.3, x+0.05'
   '-z+0.05, y+0.9, -x+0.15'
   '-z, y+0.95, x+0.15'
   'z, -y+1/4, -x+0.05'
   '-z+0.1, -y+0.2, -x+0.1'
   'z+0.1, y+0.8, x+0.1'
   'x+0.1, y+0.9, z'
   '-x+0.1, -y+0.3, -z'
   '-x+0.05, -y+0.35, z+0.1'
   'x+0.15, y+0.85, -z+0.1'
   '-x+0.15, y+0.8, -z+0.15'
   'x+0.05, -y+0.2, z+0.05'
   'x, -y+1/4, -z+0.05'
   '-x, y+0.95, z+0.15'
   'z+0.1, x+0.1, y+0.8'
   '-z+0.1, -x+0.1, -y+0.2'
   'z, -x+0.05, -y+1/4'
   '-z, x+0.15, y+0.95'
   '-z+0.05, -x+0.15, y+0.9'
   'z+0.15, x+0.05, -y+0.3'
   '-z+0.15, x, -y+0.35'
   'z+0.05, -x, y+0.85'
   'y+0.9, z+0.1, x'
   '-y+0.3, -z+0.1, -x'
   '-y+0.35, z, -x+0.15'
   'y+0.85, -z, x+0.05'
   'y+0.8, -z+0.05, -x+0.05'
   '-y+0.2, z+0.15, x+0.15'
   '-y+1/4, -z+0.15, x+0.1'
   'y+0.95, z+0.05, -x+0.1'
   'y+0.85, x+0.15, -z+0.1'
   '-y+0.35, -x+0.05, z+0.1'
   '-y+0.3, -x+0.1, -z'
   'y+0.9, x+0.1, z'
   'y+0.95, -x, z+0.15'
   '-y+1/4, x, -z+0.05'
   '-y+0.2, x+0.05, z+0.05'
   'y+0.8, -x+0.15, -z+0.15'
   'x+0.05, z+0.15, -y+0.3'
   '-x+0.15, -z+0.05, y+0.9'
   '-x, z+0.05, y+0.85'
   'x, -z+0.15, -y+0.35'
   '-x+0.1, -z+0.1, -y+0.2'
   'x+0.1, z+0.1, y+0.8'
   'x+0.15, -z, y+0.95'
   '-x+0.05, z, -y+1/4'
   'z+0.05, y+0.95, -x+0.1'
   '-z+0.15, -y+1/4, x+0.1'
   'z+0.15, -y+0.2, x+0.15'
   '-z+0.05, y+0.8, -x+0.05'
   '-z, y+0.85, x+0.05'
   'z, -y+0.35, -x+0.15'
   '-z+0.1, -y+0.3, -x'
   'z+0.1, y+0.9, x'
   'x, y+0.8, z+0.2'
   '-x, -y+0.2, -z+0.8'
   '-x+0.15, -y+1/4, z+0.3'
   'x+0.05, y+0.95, -z+0.9'
   '-x+0.05, y+0.9, -z+0.95'
   'x+0.15, -y+0.3, z+1/4'
   'x+0.1, -y+0.35, -z+0.85'
   '-x+0.1, y+0.85, z+0.35'
   'z+0.2, x, y+0.8'
   '-z+0.8, -x, -y+0.2'
   'z+0.3, -x+0.15, -y+1/4'
   '-z+0.9, x+0.05, y+0.95'
   '-z+0.95, -x+0.05, y+0.9'
   'z+1/4, x+0.15, -y+0.3'
   '-z+0.85, x+0.1, -y+0.35'
   'z+0.35, -x+0.1, y+0.85'
   'y+0.8, z+0.2, x'
   '-y+0.2, -z+0.8, -x'
   '-y+1/4, z+0.3, -x+0.15'
   'y+0.95, -z+0.9, x+0.05'
   'y+0.9, -z+0.95, -x+0.05'
   '-y+0.3, z+1/4, x+0.15'
   '-y+0.35, -z+0.85, x+0.1'
   'y+0.85, z+0.35, -x+0.1'
   'y+0.95, x+0.05, -z+0.9'
   '-y+1/4, -x+0.15, z+0.3'
   '-y+0.2, -x, -z+0.8'
   'y+0.8, x, z+0.2'
   'y+0.85, -x+0.1, z+0.35'
   '-y+0.35, x+0.1, -z+0.85'
   '-y+0.3, x+0.15, z+1/4'
   'y+0.9, -x+0.05, -z+0.95'
   'x+0.15, z+1/4, -y+0.3'
   '-x+0.05, -z+0.95, y+0.9'
   '-x+0.1, z+0.35, y+0.85'
   'x+0.1, -z+0.85, -y+0.35'
   '-x, -z+0.8, -y+0.2'
   'x, z+0.2, y+0.8'
   'x+0.05, -z+0.9, y+0.95'
   '-x+0.15, z+0.3, -y+1/4'
   'z+0.35, y+0.85, -x+0.1'
   '-z+0.85, -y+0.35, x+0.1'
   'z+1/4, -y+0.3, x+0.15'
   '-z+0.95, y+0.9, -x+0.05'
   '-z+0.9, y+0.95, x+0.05'
   'z+0.3, -y+1/4, -x+0.15'
   '-z+0.8, -y+0.2, -x'
   'z+0.2, y+0.8, x'
   'x, y+0.9, z+0.3'
   '-x, -y+0.3, -z+0.9'
   '-x+0.15, -y+0.35, z+0.2'
   'x+0.05, y+0.85, -z+0.8'
   '-x+0.05, y+0.8, -z+0.85'
   'x+0.15, -y+0.2, z+0.35'
   'x+0.1, -y+1/4, -z+0.95'
   '-x+0.1, y+0.95, z+1/4'
   'z+0.2, x+0.1, y+0.9'
   '-z+0.8, -x+0.1, -y+0.3'
   'z+0.3, -x+0.05, -y+0.35'
   '-z+0.9, x+0.15, y+0.85'
   '-z+0.95, -x+0.15, y+0.8'
   'z+1/4, x+0.05, -y+0.2'
   '-z+0.85, x, -y+1/4'
   'z+0.35, -x, y+0.95'
   'y+0.8, z+0.3, x+0.1'
   '-y+0.2, -z+0.9, -x+0.1'
   '-y+1/4, z+0.2, -x+0.05'
   'y+0.95, -z+0.8, x+0.15'
   'y+0.9, -z+0.85, -x+0.15'
   '-y+0.3, z+0.35, x+0.05'
   '-y+0.35, -z+0.95, x'
   'y+0.85, z+1/4, -x'
   'y+0.95, x+0.15, -z+0.8'
   '-y+1/4, -x+0.05, z+0.2'
   '-y+0.2, -x+0.1, -z+0.9'
   'y+0.8, x+0.1, z+0.3'
   'y+0.85, -x, z+1/4'
   '-y+0.35, x, -z+0.95'
   '-y+0.3, x+0.05, z+0.35'
   'y+0.9, -x+0.15, -z+0.85'
   'x+0.15, z+0.35, -y+0.2'
   '-x+0.05, -z+0.85, y+0.8'
   '-x+0.1, z+1/4, y+0.95'
   'x+0.1, -z+0.95, -y+1/4'
   '-x, -z+0.9, -y+0.3'
   'x, z+0.3, y+0.9'
   'x+0.05, -z+0.8, y+0.85'
   '-x+0.15, z+0.2, -y+0.35'
   'z+0.35, y+0.95, -x'
   '-z+0.85, -y+1/4, x'
   'z+1/4, -y+0.2, x+0.05'
   '-z+0.95, y+0.8, -x+0.15'
   '-z+0.9, y+0.85, x+0.15'
   'z+0.3, -y+0.35, -x+0.05'
   '-z+0.8, -y+0.3, -x+0.1'
   'z+0.2, y+0.9, x+0.1'
   'x+0.1, y+0.8, z+0.3'
   '-x+0.1, -y+0.2, -z+0.9'
   '-x+0.05, -y+1/4, z+0.2'
   'x+0.15, y+0.95, -z+0.8'
   '-x+0.15, y+0.9, -z+0.85'
   'x+0.05, -y+0.3, z+0.35'
   'x, -y+0.35, -z+0.95'
   '-x, y+0.85, z+1/4'
   'z+0.3, x, y+0.9'
   '-z+0.9, -x, -y+0.3'
   'z+0.2, -x+0.15, -y+0.35'
   '-z+0.8, x+0.05, y+0.85'
   '-z+0.85, -x+0.05, y+0.8'
   'z+0.35, x+0.15, -y+0.2'
   '-z+0.95, x+0.1, -y+1/4'
   'z+1/4, -x+0.1, y+0.95'
   'y+0.9, z+0.2, x+0.1'
   '-y+0.3, -z+0.8, -x+0.1'
   '-y+0.35, z+0.3, -x+0.05'
   'y+0.85, -z+0.9, x+0.15'
   'y+0.8, -z+0.95, -x+0.15'
   '-y+0.2, z+1/4, x+0.05'
   '-y+1/4, -z+0.85, x'
   'y+0.95, z+0.35, -x'
   'y+0.85, x+0.05, -z+0.8'
   '-y+0.35, -x+0.15, z+0.2'
   '-y+0.3, -x, -z+0.9'
   'y+0.9, x, z+0.3'
   'y+0.95, -x+0.1, z+1/4'
   '-y+1/4, x+0.1, -z+0.95'
   '-y+0.2, x+0.15, z+0.35'
   'y+0.8, -x+0.05, -z+0.85'
   'x+0.05, z+1/4, -y+0.2'
   '-x+0.15, -z+0.95, y+0.8'
   '-x, z+0.35, y+0.95'
   'x, -z+0.85, -y+1/4'
   '-x+0.1, -z+0.8, -y+0.3'
   'x+0.1, z+0.2, y+0.9'
   'x+0.15, -z+0.9, y+0.85'
   '-x+0.05, z+0.3, -y+0.35'
   'z+1/4, y+0.85, -x'
   '-z+0.95, -y+0.35, x'
   'z+0.35, -y+0.3, x+0.05'
   '-z+0.85, y+0.9, -x+0.15'
   '-z+0.8, y+0.95, x+0.15'
   'z+0.2, -y+1/4, -x+0.05'
   '-z+0.9, -y+0.2, -x+0.1'
   'z+0.3, y+0.8, x+0.1'
   'x+0.1, y+0.9, z+0.2'
   '-x+0.1, -y+0.3, -z+0.8'
   '-x+0.05, -y+0.35, z+0.3'
   'x+0.15, y+0.85, -z+0.9'
   '-x+0.15, y+0.8, -z+0.95'
   'x+0.05, -y+0.2, z+1/4'
   'x, -y+1/4, -z+0.85'
   '-x, y+0.95, z+0.35'
   'z+0.3, x+0.1, y+0.8'
   '-z+0.9, -x+0.1, -y+0.2'
   'z+0.2, -x+0.05, -y+1/4'
   '-z+0.8, x+0.15, y+0.95'
   '-z+0.85, -x+0.15, y+0.9'
   'z+0.35, x+0.05, -y+0.3'
   '-z+0.95, x, -y+0.35'
   'z+1/4, -x, y+0.85'
   'y+0.9, z+0.3, x'
   '-y+0.3, -z+0.9, -x'
   '-y+0.35, z+0.2, -x+0.15'
   'y+0.85, -z+0.8, x+0.05'
   'y+0.8, -z+0.85, -x+0.05'
   '-y+0.2, z+0.35, x+0.15'
   '-y+1/4, -z+0.95, x+0.1'
   'y+0.95, z+1/4, -x+0.1'
   'y+0.85, x+0.15, -z+0.9'
   '-y+0.35, -x+0.05, z+0.3'
   '-y+0.3, -x+0.1, -z+0.8'
   'y+0.9, x+0.1, z+0.2'
   'y+0.95, -x, z+0.35'
   '-y+1/4, x, -z+0.85'
   '-y+0.2, x+0.05, z+1/4'
   'y+0.8, -x+0.15, -z+0.95'
   'x+0.05, z+0.35, -y+0.3'
   '-x+0.15, -z+0.85, y+0.9'
   '-x, z+1/4, y+0.85'
   'x, -z+0.95, -y+0.35'
   '-x+0.1, -z+0.9, -y+0.2'
   'x+0.1, z+0.3, y+0.8'
   'x+0.15, -z+0.8, y+0.95'
   '-x+0.05, z+0.2, -y+1/4'
   'z+1/4, y+0.95, -x+0.1'
   '-z+0.95, -y+1/4, x+0.1'
   'z+0.35, -y+0.2, x+0.15'
   '-z+0.85, y+0.8, -x+0.05'
   '-z+0.8, y+0.85, x+0.05'
   'z+0.2, -y+0.35, -x+0.15'
   '-z+0.9, -y+0.3, -x'
   'z+0.3, y+0.9, x'
   'x, y+0.8, z+0.4'
   '-x, -y+0.2, -z+0.6'
   '-x+0.15, -y+1/4, z+1/2'
   'x+0.05, y+0.95, -z+0.7'
   '-x+0.05, y+0.9, -z+3/4'
   'x+0.15, -y+0.3, z+0.45'
   'x+0.1, -y+0.35, -z+0.65'
   '-x+0.1, y+0.85, z+0.55'
   'z+0.4, x, y+0.8'
   '-z+0.6, -x, -y+0.2'
   'z+1/2, -x+0.15, -y+1/4'
   '-z+0.7, x+0.05, y+0.95'
   '-z+3/4, -x+0.05, y+0.9'
   'z+0.45, x+0.15, -y+0.3'
   '-z+0.65, x+0.1, -y+0.35'
   'z+0.55, -x+0.1, y+0.85'
   'y+0.8, z+0.4, x'
   '-y+0.2, -z+0.6, -x'
   '-y+1/4, z+1/2, -x+0.15'
   'y+0.95, -z+0.7, x+0.05'
   'y+0.9, -z+3/4, -x+0.05'
   '-y+0.3, z+0.45, x+0.15'
   '-y+0.35, -z+0.65, x+0.1'
   'y+0.85, z+0.55, -x+0.1'
   'y+0.95, x+0.05, -z+0.7'
   '-y+1/4, -x+0.15, z+1/2'
   '-y+0.2, -x, -z+0.6'
   'y+0.8, x, z+0.4'
   'y+0.85, -x+0.1, z+0.55'
   '-y+0.35, x+0.1, -z+0.65'
   '-y+0.3, x+0.15, z+0.45'
   'y+0.9, -x+0.05, -z+3/4'
   'x+0.15, z+0.45, -y+0.3'
   '-x+0.05, -z+3/4, y+0.9'
   '-x+0.1, z+0.55, y+0.85'
   'x+0.1, -z+0.65, -y+0.35'
   '-x, -z+0.6, -y+0.2'
   'x, z+0.4, y+0.8'
   'x+0.05, -z+0.7, y+0.95'
   '-x+0.15, z+1/2, -y+1/4'
   'z+0.55, y+0.85, -x+0.1'
   '-z+0.65, -y+0.35, x+0.1'
   'z+0.45, -y+0.3, x+0.15'
   '-z+3/4, y+0.9, -x+0.05'
   '-z+0.7, y+0.95, x+0.05'
   'z+1/2, -y+1/4, -x+0.15'
   '-z+0.6, -y+0.2, -x'
   'z+0.4, y+0.8, x'
   'x, y+0.9, z+1/2'
   '-x, -y+0.3, -z+0.7'
   '-x+0.15, -y+0.35, z+0.4'
   'x+0.05, y+0.85, -z+0.6'
   '-x+0.05, y+0.8, -z+0.65'
   'x+0.15, -y+0.2, z+0.55'
   'x+0.1, -y+1/4, -z+3/4'
   '-x+0.1, y+0.95, z+0.45'
   'z+0.4, x+0.1, y+0.9'
   '-z+0.6, -x+0.1, -y+0.3'
   'z+1/2, -x+0.05, -y+0.35'
   '-z+0.7, x+0.15, y+0.85'
   '-z+3/4, -x+0.15, y+0.8'
   'z+0.45, x+0.05, -y+0.2'
   '-z+0.65, x, -y+1/4'
   'z+0.55, -x, y+0.95'
   'y+0.8, z+1/2, x+0.1'
   '-y+0.2, -z+0.7, -x+0.1'
   '-y+1/4, z+0.4, -x+0.05'
   'y+0.95, -z+0.6, x+0.15'
   'y+0.9, -z+0.65, -x+0.15'
   '-y+0.3, z+0.55, x+0.05'
   '-y+0.35, -z+3/4, x'
   'y+0.85, z+0.45, -x'
   'y+0.95, x+0.15, -z+0.6'
   '-y+1/4, -x+0.05, z+0.4'
   '-y+0.2, -x+0.1, -z+0.7'
   'y+0.8, x+0.1, z+1/2'
   'y+0.85, -x, z+0.45'
   '-y+0.35, x, -z+3/4'
   '-y+0.3, x+0.05, z+0.55'
   'y+0.9, -x+0.15, -z+0.65'
   'x+0.15, z+0.55, -y+0.2'
   '-x+0.05, -z+0.65, y+0.8'
   '-x+0.1, z+0.45, y+0.95'
   'x+0.1, -z+3/4, -y+1/4'
   '-x, -z+0.7, -y+0.3'
   'x, z+1/2, y+0.9'
   'x+0.05, -z+0.6, y+0.85'
   '-x+0.15, z+0.4, -y+0.35'
   'z+0.55, y+0.95, -x'
   '-z+0.65, -y+1/4, x'
   'z+0.45, -y+0.2, x+0.05'
   '-z+3/4, y+0.8, -x+0.15'
   '-z+0.7, y+0.85, x+0.15'
   'z+1/2, -y+0.35, -x+0.05'
   '-z+0.6, -y+0.3, -x+0.1'
   'z+0.4, y+0.9, x+0.1'
   'x+0.1, y+0.8, z+1/2'
   '-x+0.1, -y+0.2, -z+0.7'
   '-x+0.05, -y+1/4, z+0.4'
   'x+0.15, y+0.95, -z+0.6'
   '-x+0.15, y+0.9, -z+0.65'
   'x+0.05, -y+0.3, z+0.55'
   'x, -y+0.35, -z+3/4'
   '-x, y+0.85, z+0.45'
   'z+1/2, x, y+0.9'
   '-z+0.7, -x, -y+0.3'
   'z+0.4, -x+0.15, -y+0.35'
   '-z+0.6, x+0.05, y+0.85'
   '-z+0.65, -x+0.05, y+0.8'
   'z+0.55, x+0.15, -y+0.2'
   '-z+3/4, x+0.1, -y+1/4'
   'z+0.45, -x+0.1, y+0.95'
   'y+0.9, z+0.4, x+0.1'
   '-y+0.3, -z+0.6, -x+0.1'
   '-y+0.35, z+1/2, -x+0.05'
   'y+0.85, -z+0.7, x+0.15'
   'y+0.8, -z+3/4, -x+0.15'
   '-y+0.2, z+0.45, x+0.05'
   '-y+1/4, -z+0.65, x'
   'y+0.95, z+0.55, -x'
   'y+0.85, x+0.05, -z+0.6'
   '-y+0.35, -x+0.15, z+0.4'
   '-y+0.3, -x, -z+0.7'
   'y+0.9, x, z+1/2'
   'y+0.95, -x+0.1, z+0.45'
   '-y+1/4, x+0.1, -z+3/4'
   '-y+0.2, x+0.15, z+0.55'
   'y+0.8, -x+0.05, -z+0.65'
   'x+0.05, z+0.45, -y+0.2'
   '-x+0.15, -z+3/4, y+0.8'
   '-x, z+0.55, y+0.95'
   'x, -z+0.65, -y+1/4'
   '-x+0.1, -z+0.6, -y+0.3'
   'x+0.1, z+0.4, y+0.9'
   'x+0.15, -z+0.7, y+0.85'
   '-x+0.05, z+1/2, -y+0.35'
   'z+0.45, y+0.85, -x'
   '-z+3/4, -y+0.35, x'
   'z+0.55, -y+0.3, x+0.05'
   '-z+0.65, y+0.9, -x+0.15'
   '-z+0.6, y+0.95, x+0.15'
   'z+0.4, -y+1/4, -x+0.05'
   '-z+0.7, -y+0.2, -x+0.1'
   'z+1/2, y+0.8, x+0.1'
   'x+0.1, y+0.9, z+0.4'
   '-x+0.1, -y+0.3, -z+0.6'
   '-x+0.05, -y+0.35, z+1/2'
   'x+0.15, y+0.85, -z+0.7'
   '-x+0.15, y+0.8, -z+3/4'
   'x+0.05, -y+0.2, z+0.45'
   'x, -y+1/4, -z+0.65'
   '-x, y+0.95, z+0.55'
   'z+1/2, x+0.1, y+0.8'
   '-z+0.7, -x+0.1, -y+0.2'
   'z+0.4, -x+0.05, -y+1/4'
   '-z+0.6, x+0.15, y+0.95'
   '-z+0.65, -x+0.15, y+0.9'
   'z+0.55, x+0.05, -y+0.3'
   '-z+3/4, x, -y+0.35'
   'z+0.45, -x, y+0.85'
   'y+0.9, z+1/2, x'
   '-y+0.3, -z+0.7, -x'
   '-y+0.35, z+0.4, -x+0.15'
   'y+0.85, -z+0.6, x+0.05'
   'y+0.8, -z+0.65, -x+0.05'
   '-y+0.2, z+0.55, x+0.15'
   '-y+1/4, -z+3/4, x+0.1'
   'y+0.95, z+0.45, -x+0.1'
   'y+0.85, x+0.15, -z+0.7'
   '-y+0.35, -x+0.05, z+1/2'
   '-y+0.3, -x+0.1, -z+0.6'
   'y+0.9, x+0.1, z+0.4'
   'y+0.95, -x, z+0.55'
   '-y+1/4, x, -z+0.65'
   '-y+0.2, x+0.05, z+0.45'
   'y+0.8, -x+0.15, -z+3/4'
   'x+0.05, z+0.55, -y+0.3'
   '-x+0.15, -z+0.65, y+0.9'
   '-x, z+0.45, y+0.85'
   'x, -z+3/4, -y+0.35'
   '-x+0.1, -z+0.7, -y+0.2'
   'x+0.1, z+1/2, y+0.8'
   'x+0.15, -z+0.6, y+0.95'
   '-x+0.05, z+0.4, -y+1/4'
   'z+0.45, y+0.95, -x+0.1'
   '-z+3/4, -y+1/4, x+0.1'
   'z+0.55, -y+0.2, x+0.15'
   '-z+0.65, y+0.8, -x+0.05'
   '-z+0.6, y+0.85, x+0.05'
   'z+0.4, -y+0.35, -x+0.15'
   '-z+0.7, -y+0.3, -x'
   'z+1/2, y+0.9, x'
   'x, y+0.8, z+0.6'
   '-x, -y+0.2, -z+0.4'
   '-x+0.15, -y+1/4, z+0.7'
   'x+0.05, y+0.95, -z+1/2'
   '-x+0.05, y+0.9, -z+0.55'
   'x+0.15, -y+0.3, z+0.65'
   'x+0.1, -y+0.35, -z+0.45'
   '-x+0.1, y+0.85, z+3/4'
   'z+0.6, x, y+0.8'
   '-z+0.4, -x, -y+0.2'
   'z+0.7, -x+0.15, -y+1/4'
   '-z+1/2, x+0.05, y+0.95'
   '-z+0.55, -x+0.05, y+0.9'
   'z+0.65, x+0.15, -y+0.3'
   '-z+0.45, x+0.1, -y+0.35'
   'z+3/4, -x+0.1, y+0.85'
   'y+0.8, z+0.6, x'
   '-y+0.2, -z+0.4, -x'
   '-y+1/4, z+0.7, -x+0.15'
   'y+0.95, -z+1/2, x+0.05'
   'y+0.9, -z+0.55, -x+0.05'
   '-y+0.3, z+0.65, x+0.15'
   '-y+0.35, -z+0.45, x+0.1'
   'y+0.85, z+3/4, -x+0.1'
   'y+0.95, x+0.05, -z+1/2'
   '-y+1/4, -x+0.15, z+0.7'
   '-y+0.2, -x, -z+0.4'
   'y+0.8, x, z+0.6'
   'y+0.85, -x+0.1, z+3/4'
   '-y+0.35, x+0.1, -z+0.45'
   '-y+0.3, x+0.15, z+0.65'
   'y+0.9, -x+0.05, -z+0.55'
   'x+0.15, z+0.65, -y+0.3'
   '-x+0.05, -z+0.55, y+0.9'
   '-x+0.1, z+3/4, y+0.85'
   'x+0.1, -z+0.45, -y+0.35'
   '-x, -z+0.4, -y+0.2'
   'x, z+0.6, y+0.8'
   'x+0.05, -z+1/2, y+0.95'
   '-x+0.15, z+0.7, -y+1/4'
   'z+3/4, y+0.85, -x+0.1'
   '-z+0.45, -y+0.35, x+0.1'
   'z+0.65, -y+0.3, x+0.15'
   '-z+0.55, y+0.9, -x+0.05'
   '-z+1/2, y+0.95, x+0.05'
   'z+0.7, -y+1/4, -x+0.15'
   '-z+0.4, -y+0.2, -x'
   'z+0.6, y+0.8, x'
   'x, y+0.9, z+0.7'
   '-x, -y+0.3, -z+1/2'
   '-x+0.15, -y+0.35, z+0.6'
   'x+0.05, y+0.85, -z+0.4'
   '-x+0.05, y+0.8, -z+0.45'
   'x+0.15, -y+0.2, z+3/4'
   'x+0.1, -y+1/4, -z+0.55'
   '-x+0.1, y+0.95, z+0.65'
   'z+0.6, x+0.1, y+0.9'
   '-z+0.4, -x+0.1, -y+0.3'
   'z+0.7, -x+0.05, -y+0.35'
   '-z+1/2, x+0.15, y+0.85'
   '-z+0.55, -x+0.15, y+0.8'
   'z+0.65, x+0.05, -y+0.2'
   '-z+0.45, x, -y+1/4'
   'z+3/4, -x, y+0.95'
   'y+0.8, z+0.7, x+0.1'
   '-y+0.2, -z+1/2, -x+0.1'
   '-y+1/4, z+0.6, -x+0.05'
   'y+0.95, -z+0.4, x+0.15'
   'y+0.9, -z+0.45, -x+0.15'
   '-y+0.3, z+3/4, x+0.05'
   '-y+0.35, -z+0.55, x'
   'y+0.85, z+0.65, -x'
   'y+0.95, x+0.15, -z+0.4'
   '-y+1/4, -x+0.05, z+0.6'
   '-y+0.2, -x+0.1, -z+1/2'
   'y+0.8, x+0.1, z+0.7'
   'y+0.85, -x, z+0.65'
   '-y+0.35, x, -z+0.55'
   '-y+0.3, x+0.05, z+3/4'
   'y+0.9, -x+0.15, -z+0.45'
   'x+0.15, z+3/4, -y+0.2'
   '-x+0.05, -z+0.45, y+0.8'
   '-x+0.1, z+0.65, y+0.95'
   'x+0.1, -z+0.55, -y+1/4'
   '-x, -z+1/2, -y+0.3'
   'x, z+0.7, y+0.9'
   'x+0.05, -z+0.4, y+0.85'
   '-x+0.15, z+0.6, -y+0.35'
   'z+3/4, y+0.95, -x'
   '-z+0.45, -y+1/4, x'
   'z+0.65, -y+0.2, x+0.05'
   '-z+0.55, y+0.8, -x+0.15'
   '-z+1/2, y+0.85, x+0.15'
   'z+0.7, -y+0.35, -x+0.05'
   '-z+0.4, -y+0.3, -x+0.1'
   'z+0.6, y+0.9, x+0.1'
   'x+0.1, y+0.8, z+0.7'
   '-x+0.1, -y+0.2, -z+1/2'
   '-x+0.05, -y+1/4, z+0.6'
   'x+0.15, y+0.95, -z+0.4'
   '-x+0.15, y+0.9, -z+0.45'
   'x+0.05, -y+0.3, z+3/4'
   'x, -y+0.35, -z+0.55'
   '-x, y+0.85, z+0.65'
   'z+0.7, x, y+0.9'
   '-z+1/2, -x, -y+0.3'
   'z+0.6, -x+0.15, -y+0.35'
   '-z+0.4, x+0.05, y+0.85'
   '-z+0.45, -x+0.05, y+0.8'
   'z+3/4, x+0.15, -y+0.2'
   '-z+0.55, x+0.1, -y+1/4'
   'z+0.65, -x+0.1, y+0.95'
   'y+0.9, z+0.6, x+0.1'
   '-y+0.3, -z+0.4, -x+0.1'
   '-y+0.35, z+0.7, -x+0.05'
   'y+0.85, -z+1/2, x+0.15'
   'y+0.8, -z+0.55, -x+0.15'
   '-y+0.2, z+0.65, x+0.05'
   '-y+1/4, -z+0.45, x'
   'y+0.95, z+3/4, -x'
   'y+0.85, x+0.05, -z+0.4'
   '-y+0.35, -x+0.15, z+0.6'
   '-y+0.3, -x, -z+1/2'
   'y+0.9, x, z+0.7'
   'y+0.95, -x+0.1, z+0.65'
   '-y+1/4, x+0.1, -z+0.55'
   '-y+0.2, x+0.15, z+3/4'
   'y+0.8, -x+0.05, -z+0.45'
   'x+0.05, z+0.65, -y+0.2'
   '-x+0.15, -z+0.55, y+0.8'
   '-x, z+3/4, y+0.95'
   'x, -z+0.45, -y+1/4'
   '-x+0.1, -z+0.4, -y+0.3'
   'x+0.1, z+0.6, y+0.9'
   'x+0.15, -z+1/2, y+0.85'
   '-x+0.05, z+0.7, -y+0.35'
   'z+0.65, y+0.85, -x'
   '-z+0.55, -y+0.35, x'
   'z+3/4, -y+0.3, x+0.05'
   '-z+0.45, y+0.9, -x+0.15'
   '-z+0.4, y+0.95, x+0.15'
   'z+0.6, -y+1/4, -x+0.05'
   '-z+1/2, -y+0.2, -x+0.1'
   'z+0.7, y+0.8, x+0.1'
   'x+0.1, y+0.9, z+0.6'
   '-x+0.1, -y+0.3, -z+0.4'
   '-x+0.05, -y+0.35, z+0.7'
   'x+0.15, y+0.85, -z+1/2'
   '-x+0.15, y+0.8, -z+0.55'
   'x+0.05, -y+0.2, z+0.65'
   'x, -y+1/4, -z+0.45'
   '-x, y+0.95, z+3/4'
   'z+0.7, x+0.1, y+0.8'
   '-z+1/2, -x+0.1, -y+0.2'
   'z+0.6, -x+0.05, -y+1/4'
   '-z+0.4, x+0.15, y+0.95'
   '-z+0.45, -x+0.15, y+0.9'
   'z+3/4, x+0.05, -y+0.3'
   '-z+0.55, x, -y+0.35'
   'z+0.65, -x, y+0.85'
   'y+0.9, z+0.7, x'
   '-y+0.3, -z+1/2, -x'
   '-y+0.35, z+0.6, -x+0.15'
   'y+0.85, -z+0.4, x+0.05'
   'y+0.8, -z+0.45, -x+0.05'
   '-y+0.2, z+3/4, x+0.15'
   '-y+1/4, -z+0.55, x+0.1'
   'y+0.95, z+0.65, -x+0.1'
   'y+0.85, x+0.15, -z+1/2'
   '-y+0.35, -x+0.05, z+0.7'
   '-y+0.3, -x+0.1, -z+0.4'
   'y+0.9, x+0.1, z+0.6'
   'y+0.95, -x, z+3/4'
   '-y+1/4, x, -z+0.45'
   '-y+0.2, x+0.05, z+0.65'
   'y+0.8, -x+0.15, -z+0.55'
   'x+0.05, z+3/4, -y+0.3'
   '-x+0.15, -z+0.45, y+0.9'
   '-x, z+0.65, y+0.85'
   'x, -z+0.55, -y+0.35'
   '-x+0.1, -z+1/2, -y+0.2'
   'x+0.1, z+0.7, y+0.8'
   'x+0.15, -z+0.4, y+0.95'
   '-x+0.05, z+0.6, -y+1/4'
   'z+0.65, y+0.95, -x+0.1'
   '-z+0.55, -y+1/4, x+0.1'
   'z+3/4, -y+0.2, x+0.15'
   '-z+0.45, y+0.8, -x+0.05'
   '-z+0.4, y+0.85, x+0.05'
   'z+0.6, -y+0.35, -x+0.15'
   '-z+1/2, -y+0.3, -x'
   'z+0.7, y+0.9, x'
   'x, y+0.8, z+0.8'
   '-x, -y+0.2, -z+0.2'
   '-x+0.15, -y+1/4, z+0.9'
   'x+0.05, y+0.95, -z+0.3'
   '-x+0.05, y+0.9, -z+0.35'
   'x+0.15, -y+0.3, z+0.85'
   'x+0.1, -y+0.35, -z+1/4'
   '-x+0.1, y+0.85, z+0.95'
   'z+0.8, x, y+0.8'
   '-z+0.2, -x, -y+0.2'
   'z+0.9, -x+0.15, -y+1/4'
   '-z+0.3, x+0.05, y+0.95'
   '-z+0.35, -x+0.05, y+0.9'
   'z+0.85, x+0.15, -y+0.3'
   '-z+1/4, x+0.1, -y+0.35'
   'z+0.95, -x+0.1, y+0.85'
   'y+0.8, z+0.8, x'
   '-y+0.2, -z+0.2, -x'
   '-y+1/4, z+0.9, -x+0.15'
   'y+0.95, -z+0.3, x+0.05'
   'y+0.9, -z+0.35, -x+0.05'
   '-y+0.3, z+0.85, x+0.15'
   '-y+0.35, -z+1/4, x+0.1'
   'y+0.85, z+0.95, -x+0.1'
   'y+0.95, x+0.05, -z+0.3'
   '-y+1/4, -x+0.15, z+0.9'
   '-y+0.2, -x, -z+0.2'
   'y+0.8, x, z+0.8'
   'y+0.85, -x+0.1, z+0.95'
   '-y+0.35, x+0.1, -z+1/4'
   '-y+0.3, x+0.15, z+0.85'
   'y+0.9, -x+0.05, -z+0.35'
   'x+0.15, z+0.85, -y+0.3'
   '-x+0.05, -z+0.35, y+0.9'
   '-x+0.1, z+0.95, y+0.85'
   'x+0.1, -z+1/4, -y+0.35'
   '-x, -z+0.2, -y+0.2'
   'x, z+0.8, y+0.8'
   'x+0.05, -z+0.3, y+0.95'
   '-x+0.15, z+0.9, -y+1/4'
   'z+0.95, y+0.85, -x+0.1'
   '-z+1/4, -y+0.35, x+0.1'
   'z+0.85, -y+0.3, x+0.15'
   '-z+0.35, y+0.9, -x+0.05'
   '-z+0.3, y+0.95, x+0.05'
   'z+0.9, -y+1/4, -x+0.15'
   '-z+0.2, -y+0.2, -x'
   'z+0.8, y+0.8, x'
   'x, y+0.9, z+0.9'
   '-x, -y+0.3, -z+0.3'
   '-x+0.15, -y+0.35, z+0.8'
   'x+0.05, y+0.85, -z+0.2'
   '-x+0.05, y+0.8, -z+1/4'
   'x+0.15, -y+0.2, z+0.95'
   'x+0.1, -y+1/4, -z+0.35'
   '-x+0.1, y+0.95, z+0.85'
   'z+0.8, x+0.1, y+0.9'
   '-z+0.2, -x+0.1, -y+0.3'
   'z+0.9, -x+0.05, -y+0.35'
   '-z+0.3, x+0.15, y+0.85'
   '-z+0.35, -x+0.15, y+0.8'
   'z+0.85, x+0.05, -y+0.2'
   '-z+1/4, x, -y+1/4'
   'z+0.95, -x, y+0.95'
   'y+0.8, z+0.9, x+0.1'
   '-y+0.2, -z+0.3, -x+0.1'
   '-y+1/4, z+0.8, -x+0.05'
   'y+0.95, -z+0.2, x+0.15'
   'y+0.9, -z+1/4, -x+0.15'
   '-y+0.3, z+0.95, x+0.05'
   '-y+0.35, -z+0.35, x'
   'y+0.85, z+0.85, -x'
   'y+0.95, x+0.15, -z+0.2'
   '-y+1/4, -x+0.05, z+0.8'
   '-y+0.2, -x+0.1, -z+0.3'
   'y+0.8, x+0.1, z+0.9'
   'y+0.85, -x, z+0.85'
   '-y+0.35, x, -z+0.35'
   '-y+0.3, x+0.05, z+0.95'
   'y+0.9, -x+0.15, -z+1/4'
   'x+0.15, z+0.95, -y+0.2'
   '-x+0.05, -z+1/4, y+0.8'
   '-x+0.1, z+0.85, y+0.95'
   'x+0.1, -z+0.35, -y+1/4'
   '-x, -z+0.3, -y+0.3'
   'x, z+0.9, y+0.9'
   'x+0.05, -z+0.2, y+0.85'
   '-x+0.15, z+0.8, -y+0.35'
   'z+0.95, y+0.95, -x'
   '-z+1/4, -y+1/4, x'
   'z+0.85, -y+0.2, x+0.05'
   '-z+0.35, y+0.8, -x+0.15'
   '-z+0.3, y+0.85, x+0.15'
   'z+0.9, -y+0.35, -x+0.05'
   '-z+0.2, -y+0.3, -x+0.1'
   'z+0.8, y+0.9, x+0.1'
   'x+0.1, y+0.8, z+0.9'
   '-x+0.1, -y+0.2, -z+0.3'
   '-x+0.05, -y+1/4, z+0.8'
   'x+0.15, y+0.95, -z+0.2'
   '-x+0.15, y+0.9, -z+1/4'
   'x+0.05, -y+0.3, z+0.95'
   'x, -y+0.35, -z+0.35'
   '-x, y+0.85, z+0.85'
   'z+0.9, x, y+0.9'
   '-z+0.3, -x, -y+0.3'
   'z+0.8, -x+0.15, -y+0.35'
   '-z+0.2, x+0.05, y+0.85'
   '-z+1/4, -x+0.05, y+0.8'
   'z+0.95, x+0.15, -y+0.2'
   '-z+0.35, x+0.1, -y+1/4'
   'z+0.85, -x+0.1, y+0.95'
   'y+0.9, z+0.8, x+0.1'
   '-y+0.3, -z+0.2, -x+0.1'
   '-y+0.35, z+0.9, -x+0.05'
   'y+0.85, -z+0.3, x+0.15'
   'y+0.8, -z+0.35, -x+0.15'
   '-y+0.2, z+0.85, x+0.05'
   '-y+1/4, -z+1/4, x'
   'y+0.95, z+0.95, -x'
   'y+0.85, x+0.05, -z+0.2'
   '-y+0.35, -x+0.15, z+0.8'
   '-y+0.3, -x, -z+0.3'
   'y+0.9, x, z+0.9'
   'y+0.95, -x+0.1, z+0.85'
   '-y+1/4, x+0.1, -z+0.35'
   '-y+0.2, x+0.15, z+0.95'
   'y+0.8, -x+0.05, -z+1/4'
   'x+0.05, z+0.85, -y+0.2'
   '-x+0.15, -z+0.35, y+0.8'
   '-x, z+0.95, y+0.95'
   'x, -z+1/4, -y+1/4'
   '-x+0.1, -z+0.2, -y+0.3'
   'x+0.1, z+0.8, y+0.9'
   'x+0.15, -z+0.3, y+0.85'
   '-x+0.05, z+0.9, -y+0.35'
   'z+0.85, y+0.85, -x'
   '-z+0.35, -y+0.35, x'
   'z+0.95, -y+0.3, x+0.05'
   '-z+1/4, y+0.9, -x+0.15'
   '-z+0.2, y+0.95, x+0.15'
   'z+0.8, -y+1/4, -x+0.05'
   '-z+0.3, -y+0.2, -x+0.1'
   'z+0.9, y+0.8, x+0.1'
   'x+0.1, y+0.9, z+0.8'
   '-x+0.1, -y+0.3, -z+0.2'
   '-x+0.05, -y+0.35, z+0.9'
   'x+0.15, y+0.85, -z+0.3'
   '-x+0.15, y+0.8, -z+0.35'
   'x+0.05, -y+0.2, z+0.85'
   'x, -y+1/4, -z+1/4'
   '-x, y+0.95, z+0.95'
   'z+0.9, x+0.1, y+0.8'
   '-z+0.3, -x+0.1, -y+0.2'
   'z+0.8, -x+0.05, -y+1/4'
   '-z+0.2, x+0.15, y+0.95'
   '-z+1/4, -x+0.15, y+0.9'
   'z+0.95, x+0.05, -y+0.3'
   '-z+0.35, x, -y+0.35'
   'z+0.85, -x, y+0.85'
   'y+0.9, z+0.9, x'
   '-y+0.3, -z+0.3, -x'
   '-y+0.35, z+0.8, -x+0.15'
   'y+0.85, -z+0.2, x+0.05'
   'y+0.8, -z+1/4, -x+0.05'
   '-y+0.2, z+0.95, x+0.15'
   '-y+1/4, -z+0.35, x+0.1'
   'y+0.95, z+0.85, -x+0.1'
   'y+0.85, x+0.15, -z+0.3'
   '-y+0.35, -x+0.05, z+0.9'
   '-y+0.3, -x+0.1, -z+0.2'
   'y+0.9, x+0.1, z+0.8'
   'y+0.95, -x, z+0.95'
   '-y+1/4, x, -z+1/4'
   '-y+0.2, x+0.05, z+0.85'
   'y+0.8, -x+0.15, -z+0.35'
   'x+0.05, z+0.95, -y+0.3'
   '-x+0.15, -z+1/4, y+0.9'
   '-x, z+0.85, y+0.85'
   'x, -z+0.35, -y+0.35'
   '-x+0.1, -z+0.3, -y+0.2'
   'x+0.1, z+0.9, y+0.8'
   'x+0.15, -z+0.2, y+0.95'
   '-x+0.05, z+0.8, -y+1/4'
   'z+0.85, y+0.95, -x+0.1'
   '-z+0.35, -y+1/4, x+0.1'
   'z+0.95, -y+0.2, x+0.15'
   '-z+1/4, y+0.8, -x+0.05'
   '-z+0.2, y+0.85, x+0.05'
   'z+0.8, -y+0.35, -x+0.15'
   '-z+0.3, -y+0.3, -x'
   'z+0.9, y+0.9, x'
   'x+0.2, y, z'
   '-x+0.8, -y, -z'
   '-x+0.95, -y+0.05, z+0.1'
   'x+1/4, y+0.15, -z+0.1'
   '-x+0.85, y+0.1, -z+0.15'
   'x+0.35, -y+0.1, z+0.05'
   'x+0.3, -y+0.15, -z+0.05'
   '-x+0.9, y+0.05, z+0.15'
   'z, x+0.2, y'
   '-z, -x+0.8, -y'
   'z+0.1, -x+0.95, -y+0.05'
   '-z+0.1, x+1/4, y+0.15'
   '-z+0.15, -x+0.85, y+0.1'
   'z+0.05, x+0.35, -y+0.1'
   '-z+0.05, x+0.3, -y+0.15'
   'z+0.15, -x+0.9, y+0.05'
   'y, z, x+0.2'
   '-y, -z, -x+0.8'
   '-y+0.05, z+0.1, -x+0.95'
   'y+0.15, -z+0.1, x+1/4'
   'y+0.1, -z+0.15, -x+0.85'
   '-y+0.1, z+0.05, x+0.35'
   '-y+0.15, -z+0.05, x+0.3'
   'y+0.05, z+0.15, -x+0.9'
   'y+0.15, x+1/4, -z+0.1'
   '-y+0.05, -x+0.95, z+0.1'
   '-y, -x+0.8, -z'
   'y, x+0.2, z'
   'y+0.05, -x+0.9, z+0.15'
   '-y+0.15, x+0.3, -z+0.05'
   '-y+0.1, x+0.35, z+0.05'
   'y+0.1, -x+0.85, -z+0.15'
   'x+0.35, z+0.05, -y+0.1'
   '-x+0.85, -z+0.15, y+0.1'
   '-x+0.9, z+0.15, y+0.05'
   'x+0.3, -z+0.05, -y+0.15'
   '-x+0.8, -z, -y'
   'x+0.2, z, y'
   'x+1/4, -z+0.1, y+0.15'
   '-x+0.95, z+0.1, -y+0.05'
   'z+0.15, y+0.05, -x+0.9'
   '-z+0.05, -y+0.15, x+0.3'
   'z+0.05, -y+0.1, x+0.35'
   '-z+0.15, y+0.1, -x+0.85'
   '-z+0.1, y+0.15, x+1/4'
   'z+0.1, -y+0.05, -x+0.95'
   '-z, -y, -x+0.8'
   'z, y, x+0.2'
   'x+0.2, y+0.1, z+0.1'
   '-x+0.8, -y+0.1, -z+0.1'
   '-x+0.95, -y+0.15, z'
   'x+1/4, y+0.05, -z'
   '-x+0.85, y, -z+0.05'
   'x+0.35, -y, z+0.15'
   'x+0.3, -y+0.05, -z+0.15'
   '-x+0.9, y+0.15, z+0.05'
   'z, x+0.3, y+0.1'
   '-z, -x+0.9, -y+0.1'
   'z+0.1, -x+0.85, -y+0.15'
   '-z+0.1, x+0.35, y+0.05'
   '-z+0.15, -x+0.95, y'
   'z+0.05, x+1/4, -y'
   '-z+0.05, x+0.2, -y+0.05'
   'z+0.15, -x+0.8, y+0.15'
   'y, z+0.1, x+0.3'
   '-y, -z+0.1, -x+0.9'
   '-y+0.05, z, -x+0.85'
   'y+0.15, -z, x+0.35'
   'y+0.1, -z+0.05, -x+0.95'
   '-y+0.1, z+0.15, x+1/4'
   '-y+0.15, -z+0.15, x+0.2'
   'y+0.05, z+0.05, -x+0.8'
   'y+0.15, x+0.35, -z'
   '-y+0.05, -x+0.85, z'
   '-y, -x+0.9, -z+0.1'
   'y, x+0.3, z+0.1'
   'y+0.05, -x+0.8, z+0.05'
   '-y+0.15, x+0.2, -z+0.15'
   '-y+0.1, x+1/4, z+0.15'
   'y+0.1, -x+0.95, -z+0.05'
   'x+0.35, z+0.15, -y'
   '-x+0.85, -z+0.05, y'
   '-x+0.9, z+0.05, y+0.15'
   'x+0.3, -z+0.15, -y+0.05'
   '-x+0.8, -z+0.1, -y+0.1'
   'x+0.2, z+0.1, y+0.1'
   'x+1/4, -z, y+0.05'
   '-x+0.95, z, -y+0.15'
   'z+0.15, y+0.15, -x+0.8'
   '-z+0.05, -y+0.05, x+0.2'
   'z+0.05, -y, x+1/4'
   '-z+0.15, y, -x+0.95'
   '-z+0.1, y+0.05, x+0.35'
   'z+0.1, -y+0.15, -x+0.85'
   '-z, -y+0.1, -x+0.9'
   'z, y+0.1, x+0.3'
   'x+0.3, y, z+0.1'
   '-x+0.9, -y, -z+0.1'
   '-x+0.85, -y+0.05, z'
   'x+0.35, y+0.15, -z'
   '-x+0.95, y+0.1, -z+0.05'
   'x+1/4, -y+0.1, z+0.15'
   'x+0.2, -y+0.15, -z+0.15'
   '-x+0.8, y+0.05, z+0.05'
   'z+0.1, x+0.2, y+0.1'
   '-z+0.1, -x+0.8, -y+0.1'
   'z, -x+0.95, -y+0.15'
   '-z, x+1/4, y+0.05'
   '-z+0.05, -x+0.85, y'
   'z+0.15, x+0.35, -y'
   '-z+0.15, x+0.3, -y+0.05'
   'z+0.05, -x+0.9, y+0.15'
   'y+0.1, z, x+0.3'
   '-y+0.1, -z, -x+0.9'
   '-y+0.15, z+0.1, -x+0.85'
   'y+0.05, -z+0.1, x+0.35'
   'y, -z+0.15, -x+0.95'
   '-y, z+0.05, x+1/4'
   '-y+0.05, -z+0.05, x+0.2'
   'y+0.15, z+0.15, -x+0.8'
   'y+0.05, x+1/4, -z'
   '-y+0.15, -x+0.95, z'
   '-y+0.1, -x+0.8, -z+0.1'
   'y+0.1, x+0.2, z+0.1'
   'y+0.15, -x+0.9, z+0.05'
   '-y+0.05, x+0.3, -z+0.15'
   '-y, x+0.35, z+0.15'
   'y, -x+0.85, -z+0.05'
   'x+1/4, z+0.05, -y'
   '-x+0.95, -z+0.15, y'
   '-x+0.8, z+0.15, y+0.15'
   'x+0.2, -z+0.05, -y+0.05'
   '-x+0.9, -z, -y+0.1'
   'x+0.3, z, y+0.1'
   'x+0.35, -z+0.1, y+0.05'
   '-x+0.85, z+0.1, -y+0.15'
   'z+0.05, y+0.05, -x+0.8'
   '-z+0.15, -y+0.15, x+0.2'
   'z+0.15, -y+0.1, x+1/4'
   '-z+0.05, y+0.1, -x+0.95'
   '-z, y+0.15, x+0.35'
   'z, -y+0.05, -x+0.85'
   '-z+0.1, -y, -x+0.9'
   'z+0.1, y, x+0.3'
   'x+0.3, y+0.1, z'
   '-x+0.9, -y+0.1, -z'
   '-x+0.85, -y+0.15, z+0.1'
   'x+0.35, y+0.05, -z+0.1'
   '-x+0.95, y, -z+0.15'
   'x+1/4, -y, z+0.05'
   'x+0.2, -y+0.05, -z+0.05'
   '-x+0.8, y+0.15, z+0.15'
   'z+0.1, x+0.3, y'
   '-z+0.1, -x+0.9, -y'
   'z, -x+0.85, -y+0.05'
   '-z, x+0.35, y+0.15'
   '-z+0.05, -x+0.95, y+0.1'
   'z+0.15, x+1/4, -y+0.1'
   '-z+0.15, x+0.2, -y+0.15'
   'z+0.05, -x+0.8, y+0.05'
   'y+0.1, z+0.1, x+0.2'
   '-y+0.1, -z+0.1, -x+0.8'
   '-y+0.15, z, -x+0.95'
   'y+0.05, -z, x+1/4'
   'y, -z+0.05, -x+0.85'
   '-y, z+0.15, x+0.35'
   '-y+0.05, -z+0.15, x+0.3'
   'y+0.15, z+0.05, -x+0.9'
   'y+0.05, x+0.35, -z+0.1'
   '-y+0.15, -x+0.85, z+0.1'
   '-y+0.1, -x+0.9, -z'
   'y+0.1, x+0.3, z'
   'y+0.15, -x+0.8, z+0.15'
   '-y+0.05, x+0.2, -z+0.05'
   '-y, x+1/4, z+0.05'
   'y, -x+0.95, -z+0.15'
   'x+1/4, z+0.15, -y+0.1'
   '-x+0.95, -z+0.05, y+0.1'
   '-x+0.8, z+0.05, y+0.05'
   'x+0.2, -z+0.15, -y+0.15'
   '-x+0.9, -z+0.1, -y'
   'x+0.3, z+0.1, y'
   'x+0.35, -z, y+0.15'
   '-x+0.85, z, -y+0.05'
   'z+0.05, y+0.15, -x+0.9'
   '-z+0.15, -y+0.05, x+0.3'
   'z+0.15, -y, x+0.35'
   '-z+0.05, y, -x+0.85'
   '-z, y+0.05, x+1/4'
   'z, -y+0.15, -x+0.95'
   '-z+0.1, -y+0.1, -x+0.8'
   'z+0.1, y+0.1, x+0.2'
   'x+0.2, y, z+0.2'
   '-x+0.8, -y, -z+0.8'
   '-x+0.95, -y+0.05, z+0.3'
   'x+1/4, y+0.15, -z+0.9'
   '-x+0.85, y+0.1, -z+0.95'
   'x+0.35, -y+0.1, z+1/4'
   'x+0.3, -y+0.15, -z+0.85'
   '-x+0.9, y+0.05, z+0.35'
   'z+0.2, x+0.2, y'
   '-z+0.8, -x+0.8, -y'
   'z+0.3, -x+0.95, -y+0.05'
   '-z+0.9, x+1/4, y+0.15'
   '-z+0.95, -x+0.85, y+0.1'
   'z+1/4, x+0.35, -y+0.1'
   '-z+0.85, x+0.3, -y+0.15'
   'z+0.35, -x+0.9, y+0.05'
   'y, z+0.2, x+0.2'
   '-y, -z+0.8, -x+0.8'
   '-y+0.05, z+0.3, -x+0.95'
   'y+0.15, -z+0.9, x+1/4'
   'y+0.1, -z+0.95, -x+0.85'
   '-y+0.1, z+1/4, x+0.35'
   '-y+0.15, -z+0.85, x+0.3'
   'y+0.05, z+0.35, -x+0.9'
   'y+0.15, x+1/4, -z+0.9'
   '-y+0.05, -x+0.95, z+0.3'
   '-y, -x+0.8, -z+0.8'
   'y, x+0.2, z+0.2'
   'y+0.05, -x+0.9, z+0.35'
   '-y+0.15, x+0.3, -z+0.85'
   '-y+0.1, x+0.35, z+1/4'
   'y+0.1, -x+0.85, -z+0.95'
   'x+0.35, z+1/4, -y+0.1'
   '-x+0.85, -z+0.95, y+0.1'
   '-x+0.9, z+0.35, y+0.05'
   'x+0.3, -z+0.85, -y+0.15'
   '-x+0.8, -z+0.8, -y'
   'x+0.2, z+0.2, y'
   'x+1/4, -z+0.9, y+0.15'
   '-x+0.95, z+0.3, -y+0.05'
   'z+0.35, y+0.05, -x+0.9'
   '-z+0.85, -y+0.15, x+0.3'
   'z+1/4, -y+0.1, x+0.35'
   '-z+0.95, y+0.1, -x+0.85'
   '-z+0.9, y+0.15, x+1/4'
   'z+0.3, -y+0.05, -x+0.95'
   '-z+0.8, -y, -x+0.8'
   'z+0.2, y, x+0.2'
   'x+0.2, y+0.1, z+0.3'
   '-x+0.8, -y+0.1, -z+0.9'
   '-x+0.95, -y+0.15, z+0.2'
   'x+1/4, y+0.05, -z+0.8'
   '-x+0.85, y, -z+0.85'
   'x+0.35, -y, z+0.35'
   'x+0.3, -y+0.05, -z+0.95'
   '-x+0.9, y+0.15, z+1/4'
   'z+0.2, x+0.3, y+0.1'
   '-z+0.8, -x+0.9, -y+0.1'
   'z+0.3, -x+0.85, -y+0.15'
   '-z+0.9, x+0.35, y+0.05'
   '-z+0.95, -x+0.95, y'
   'z+1/4, x+1/4, -y'
   '-z+0.85, x+0.2, -y+0.05'
   'z+0.35, -x+0.8, y+0.15'
   'y, z+0.3, x+0.3'
   '-y, -z+0.9, -x+0.9'
   '-y+0.05, z+0.2, -x+0.85'
   'y+0.15, -z+0.8, x+0.35'
   'y+0.1, -z+0.85, -x+0.95'
   '-y+0.1, z+0.35, x+1/4'
   '-y+0.15, -z+0.95, x+0.2'
   'y+0.05, z+1/4, -x+0.8'
   'y+0.15, x+0.35, -z+0.8'
   '-y+0.05, -x+0.85, z+0.2'
   '-y, -x+0.9, -z+0.9'
   'y, x+0.3, z+0.3'
   'y+0.05, -x+0.8, z+1/4'
   '-y+0.15, x+0.2, -z+0.95'
   '-y+0.1, x+1/4, z+0.35'
   'y+0.1, -x+0.95, -z+0.85'
   'x+0.35, z+0.35, -y'
   '-x+0.85, -z+0.85, y'
   '-x+0.9, z+1/4, y+0.15'
   'x+0.3, -z+0.95, -y+0.05'
   '-x+0.8, -z+0.9, -y+0.1'
   'x+0.2, z+0.3, y+0.1'
   'x+1/4, -z+0.8, y+0.05'
   '-x+0.95, z+0.2, -y+0.15'
   'z+0.35, y+0.15, -x+0.8'
   '-z+0.85, -y+0.05, x+0.2'
   'z+1/4, -y, x+1/4'
   '-z+0.95, y, -x+0.95'
   '-z+0.9, y+0.05, x+0.35'
   'z+0.3, -y+0.15, -x+0.85'
   '-z+0.8, -y+0.1, -x+0.9'
   'z+0.2, y+0.1, x+0.3'
   'x+0.3, y, z+0.3'
   '-x+0.9, -y, -z+0.9'
   '-x+0.85, -y+0.05, z+0.2'
   'x+0.35, y+0.15, -z+0.8'
   '-x+0.95, y+0.1, -z+0.85'
   'x+1/4, -y+0.1, z+0.35'
   'x+0.2, -y+0.15, -z+0.95'
   '-x+0.8, y+0.05, z+1/4'
   'z+0.3, x+0.2, y+0.1'
   '-z+0.9, -x+0.8, -y+0.1'
   'z+0.2, -x+0.95, -y+0.15'
   '-z+0.8, x+1/4, y+0.05'
   '-z+0.85, -x+0.85, y'
   'z+0.35, x+0.35, -y'
   '-z+0.95, x+0.3, -y+0.05'
   'z+1/4, -x+0.9, y+0.15'
   'y+0.1, z+0.2, x+0.3'
   '-y+0.1, -z+0.8, -x+0.9'
   '-y+0.15, z+0.3, -x+0.85'
   'y+0.05, -z+0.9, x+0.35'
   'y, -z+0.95, -x+0.95'
   '-y, z+1/4, x+1/4'
   '-y+0.05, -z+0.85, x+0.2'
   'y+0.15, z+0.35, -x+0.8'
   'y+0.05, x+1/4, -z+0.8'
   '-y+0.15, -x+0.95, z+0.2'
   '-y+0.1, -x+0.8, -z+0.9'
   'y+0.1, x+0.2, z+0.3'
   'y+0.15, -x+0.9, z+1/4'
   '-y+0.05, x+0.3, -z+0.95'
   '-y, x+0.35, z+0.35'
   'y, -x+0.85, -z+0.85'
   'x+1/4, z+1/4, -y'
   '-x+0.95, -z+0.95, y'
   '-x+0.8, z+0.35, y+0.15'
   'x+0.2, -z+0.85, -y+0.05'
   '-x+0.9, -z+0.8, -y+0.1'
   'x+0.3, z+0.2, y+0.1'
   'x+0.35, -z+0.9, y+0.05'
   '-x+0.85, z+0.3, -y+0.15'
   'z+1/4, y+0.05, -x+0.8'
   '-z+0.95, -y+0.15, x+0.2'
   'z+0.35, -y+0.1, x+1/4'
   '-z+0.85, y+0.1, -x+0.95'
   '-z+0.8, y+0.15, x+0.35'
   'z+0.2, -y+0.05, -x+0.85'
   '-z+0.9, -y, -x+0.9'
   'z+0.3, y, x+0.3'
   'x+0.3, y+0.1, z+0.2'
   '-x+0.9, -y+0.1, -z+0.8'
   '-x+0.85, -y+0.15, z+0.3'
   'x+0.35, y+0.05, -z+0.9'
   '-x+0.95, y, -z+0.95'
   'x+1/4, -y, z+1/4'
   'x+0.2, -y+0.05, -z+0.85'
   '-x+0.8, y+0.15, z+0.35'
   'z+0.3, x+0.3, y'
   '-z+0.9, -x+0.9, -y'
   'z+0.2, -x+0.85, -y+0.05'
   '-z+0.8, x+0.35, y+0.15'
   '-z+0.85, -x+0.95, y+0.1'
   'z+0.35, x+1/4, -y+0.1'
   '-z+0.95, x+0.2, -y+0.15'
   'z+1/4, -x+0.8, y+0.05'
   'y+0.1, z+0.3, x+0.2'
   '-y+0.1, -z+0.9, -x+0.8'
   '-y+0.15, z+0.2, -x+0.95'
   'y+0.05, -z+0.8, x+1/4'
   'y, -z+0.85, -x+0.85'
   '-y, z+0.35, x+0.35'
   '-y+0.05, -z+0.95, x+0.3'
   'y+0.15, z+1/4, -x+0.9'
   'y+0.05, x+0.35, -z+0.9'
   '-y+0.15, -x+0.85, z+0.3'
   '-y+0.1, -x+0.9, -z+0.8'
   'y+0.1, x+0.3, z+0.2'
   'y+0.15, -x+0.8, z+0.35'
   '-y+0.05, x+0.2, -z+0.85'
   '-y, x+1/4, z+1/4'
   'y, -x+0.95, -z+0.95'
   'x+1/4, z+0.35, -y+0.1'
   '-x+0.95, -z+0.85, y+0.1'
   '-x+0.8, z+1/4, y+0.05'
   'x+0.2, -z+0.95, -y+0.15'
   '-x+0.9, -z+0.9, -y'
   'x+0.3, z+0.3, y'
   'x+0.35, -z+0.8, y+0.15'
   '-x+0.85, z+0.2, -y+0.05'
   'z+1/4, y+0.15, -x+0.9'
   '-z+0.95, -y+0.05, x+0.3'
   'z+0.35, -y, x+0.35'
   '-z+0.85, y, -x+0.85'
   '-z+0.8, y+0.05, x+1/4'
   'z+0.2, -y+0.15, -x+0.95'
   '-z+0.9, -y+0.1, -x+0.8'
   'z+0.3, y+0.1, x+0.2'
   'x+0.2, y, z+0.4'
   '-x+0.8, -y, -z+0.6'
   '-x+0.95, -y+0.05, z+1/2'
   'x+1/4, y+0.15, -z+0.7'
   '-x+0.85, y+0.1, -z+3/4'
   'x+0.35, -y+0.1, z+0.45'
   'x+0.3, -y+0.15, -z+0.65'
   '-x+0.9, y+0.05, z+0.55'
   'z+0.4, x+0.2, y'
   '-z+0.6, -x+0.8, -y'
   'z+1/2, -x+0.95, -y+0.05'
   '-z+0.7, x+1/4, y+0.15'
   '-z+3/4, -x+0.85, y+0.1'
   'z+0.45, x+0.35, -y+0.1'
   '-z+0.65, x+0.3, -y+0.15'
   'z+0.55, -x+0.9, y+0.05'
   'y, z+0.4, x+0.2'
   '-y, -z+0.6, -x+0.8'
   '-y+0.05, z+1/2, -x+0.95'
   'y+0.15, -z+0.7, x+1/4'
   'y+0.1, -z+3/4, -x+0.85'
   '-y+0.1, z+0.45, x+0.35'
   '-y+0.15, -z+0.65, x+0.3'
   'y+0.05, z+0.55, -x+0.9'
   'y+0.15, x+1/4, -z+0.7'
   '-y+0.05, -x+0.95, z+1/2'
   '-y, -x+0.8, -z+0.6'
   'y, x+0.2, z+0.4'
   'y+0.05, -x+0.9, z+0.55'
   '-y+0.15, x+0.3, -z+0.65'
   '-y+0.1, x+0.35, z+0.45'
   'y+0.1, -x+0.85, -z+3/4'
   'x+0.35, z+0.45, -y+0.1'
   '-x+0.85, -z+3/4, y+0.1'
   '-x+0.9, z+0.55, y+0.05'
   'x+0.3, -z+0.65, -y+0.15'
   '-x+0.8, -z+0.6, -y'
   'x+0.2, z+0.4, y'
   'x+1/4, -z+0.7, y+0.15'
   '-x+0.95, z+1/2, -y+0.05'
   'z+0.55, y+0.05, -x+0.9'
   '-z+0.65, -y+0.15, x+0.3'
   'z+0.45, -y+0.1, x+0.35'
   '-z+3/4, y+0.1, -x+0.85'
   '-z+0.7, y+0.15, x+1/4'
   'z+1/2, -y+0.05, -x+0.95'
   '-z+0.6, -y, -x+0.8'
   'z+0.4, y, x+0.2'
   'x+0.2, y+0.1, z+1/2'
   '-x+0.8, -y+0.1, -z+0.7'
   '-x+0.95, -y+0.15, z+0.4'
   'x+1/4, y+0.05, -z+0.6'
   '-x+0.85, y, -z+0.65'
   'x+0.35, -y, z+0.55'
   'x+0.3, -y+0.05, -z+3/4'
   '-x+0.9, y+0.15, z+0.45'
   'z+0.4, x+0.3, y+0.1'
   '-z+0.6, -x+0.9, -y+0.1'
   'z+1/2, -x+0.85, -y+0.15'
   '-z+0.7, x+0.35, y+0.05'
   '-z+3/4, -x+0.95, y'
   'z+0.45, x+1/4, -y'
   '-z+0.65, x+0.2, -y+0.05'
   'z+0.55, -x+0.8, y+0.15'
   'y, z+1/2, x+0.3'
   '-y, -z+0.7, -x+0.9'
   '-y+0.05, z+0.4, -x+0.85'
   'y+0.15, -z+0.6, x+0.35'
   'y+0.1, -z+0.65, -x+0.95'
   '-y+0.1, z+0.55, x+1/4'
   '-y+0.15, -z+3/4, x+0.2'
   'y+0.05, z+0.45, -x+0.8'
   'y+0.15, x+0.35, -z+0.6'
   '-y+0.05, -x+0.85, z+0.4'
   '-y, -x+0.9, -z+0.7'
   'y, x+0.3, z+1/2'
   'y+0.05, -x+0.8, z+0.45'
   '-y+0.15, x+0.2, -z+3/4'
   '-y+0.1, x+1/4, z+0.55'
   'y+0.1, -x+0.95, -z+0.65'
   'x+0.35, z+0.55, -y'
   '-x+0.85, -z+0.65, y'
   '-x+0.9, z+0.45, y+0.15'
   'x+0.3, -z+3/4, -y+0.05'
   '-x+0.8, -z+0.7, -y+0.1'
   'x+0.2, z+1/2, y+0.1'
   'x+1/4, -z+0.6, y+0.05'
   '-x+0.95, z+0.4, -y+0.15'
   'z+0.55, y+0.15, -x+0.8'
   '-z+0.65, -y+0.05, x+0.2'
   'z+0.45, -y, x+1/4'
   '-z+3/4, y, -x+0.95'
   '-z+0.7, y+0.05, x+0.35'
   'z+1/2, -y+0.15, -x+0.85'
   '-z+0.6, -y+0.1, -x+0.9'
   'z+0.4, y+0.1, x+0.3'
   'x+0.3, y, z+1/2'
   '-x+0.9, -y, -z+0.7'
   '-x+0.85, -y+0.05, z+0.4'
   'x+0.35, y+0.15, -z+0.6'
   '-x+0.95, y+0.1, -z+0.65'
   'x+1/4, -y+0.1, z+0.55'
   'x+0.2, -y+0.15, -z+3/4'
   '-x+0.8, y+0.05, z+0.45'
   'z+1/2, x+0.2, y+0.1'
   '-z+0.7, -x+0.8, -y+0.1'
   'z+0.4, -x+0.95, -y+0.15'
   '-z+0.6, x+1/4, y+0.05'
   '-z+0.65, -x+0.85, y'
   'z+0.55, x+0.35, -y'
   '-z+3/4, x+0.3, -y+0.05'
   'z+0.45, -x+0.9, y+0.15'
   'y+0.1, z+0.4, x+0.3'
   '-y+0.1, -z+0.6, -x+0.9'
   '-y+0.15, z+1/2, -x+0.85'
   'y+0.05, -z+0.7, x+0.35'
   'y, -z+3/4, -x+0.95'
   '-y, z+0.45, x+1/4'
   '-y+0.05, -z+0.65, x+0.2'
   'y+0.15, z+0.55, -x+0.8'
   'y+0.05, x+1/4, -z+0.6'
   '-y+0.15, -x+0.95, z+0.4'
   '-y+0.1, -x+0.8, -z+0.7'
   'y+0.1, x+0.2, z+1/2'
   'y+0.15, -x+0.9, z+0.45'
   '-y+0.05, x+0.3, -z+3/4'
   '-y, x+0.35, z+0.55'
   'y, -x+0.85, -z+0.65'
   'x+1/4, z+0.45, -y'
   '-x+0.95, -z+3/4, y'
   '-x+0.8, z+0.55, y+0.15'
   'x+0.2, -z+0.65, -y+0.05'
   '-x+0.9, -z+0.6, -y+0.1'
   'x+0.3, z+0.4, y+0.1'
   'x+0.35, -z+0.7, y+0.05'
   '-x+0.85, z+1/2, -y+0.15'
   'z+0.45, y+0.05, -x+0.8'
   '-z+3/4, -y+0.15, x+0.2'
   'z+0.55, -y+0.1, x+1/4'
   '-z+0.65, y+0.1, -x+0.95'
   '-z+0.6, y+0.15, x+0.35'
   'z+0.4, -y+0.05, -x+0.85'
   '-z+0.7, -y, -x+0.9'
   'z+1/2, y, x+0.3'
   'x+0.3, y+0.1, z+0.4'
   '-x+0.9, -y+0.1, -z+0.6'
   '-x+0.85, -y+0.15, z+1/2'
   'x+0.35, y+0.05, -z+0.7'
   '-x+0.95, y, -z+3/4'
   'x+1/4, -y, z+0.45'
   'x+0.2, -y+0.05, -z+0.65'
   '-x+0.8, y+0.15, z+0.55'
   'z+1/2, x+0.3, y'
   '-z+0.7, -x+0.9, -y'
   'z+0.4, -x+0.85, -y+0.05'
   '-z+0.6, x+0.35, y+0.15'
   '-z+0.65, -x+0.95, y+0.1'
   'z+0.55, x+1/4, -y+0.1'
   '-z+3/4, x+0.2, -y+0.15'
   'z+0.45, -x+0.8, y+0.05'
   'y+0.1, z+1/2, x+0.2'
   '-y+0.1, -z+0.7, -x+0.8'
   '-y+0.15, z+0.4, -x+0.95'
   'y+0.05, -z+0.6, x+1/4'
   'y, -z+0.65, -x+0.85'
   '-y, z+0.55, x+0.35'
   '-y+0.05, -z+3/4, x+0.3'
   'y+0.15, z+0.45, -x+0.9'
   'y+0.05, x+0.35, -z+0.7'
   '-y+0.15, -x+0.85, z+1/2'
   '-y+0.1, -x+0.9, -z+0.6'
   'y+0.1, x+0.3, z+0.4'
   'y+0.15, -x+0.8, z+0.55'
   '-y+0.05, x+0.2, -z+0.65'
   '-y, x+1/4, z+0.45'
   'y, -x+0.95, -z+3/4'
   'x+1/4, z+0.55, -y+0.1'
   '-x+0.95, -z+0.65, y+0.1'
   '-x+0.8, z+0.45, y+0.05'
   'x+0.2, -z+3/4, -y+0.15'
   '-x+0.9, -z+0.7, -y'
   'x+0.3, z+1/2, y'
   'x+0.35, -z+0.6, y+0.15'
   '-x+0.85, z+0.4, -y+0.05'
   'z+0.45, y+0.15, -x+0.9'
   '-z+3/4, -y+0.05, x+0.3'
   'z+0.55, -y, x+0.35'
   '-z+0.65, y, -x+0.85'
   '-z+0.6, y+0.05, x+1/4'
   'z+0.4, -y+0.15, -x+0.95'
   '-z+0.7, -y+0.1, -x+0.8'
   'z+1/2, y+0.1, x+0.2'
   'x+0.2, y, z+0.6'
   '-x+0.8, -y, -z+0.4'
   '-x+0.95, -y+0.05, z+0.7'
   'x+1/4, y+0.15, -z+1/2'
   '-x+0.85, y+0.1, -z+0.55'
   'x+0.35, -y+0.1, z+0.65'
   'x+0.3, -y+0.15, -z+0.45'
   '-x+0.9, y+0.05, z+3/4'
   'z+0.6, x+0.2, y'
   '-z+0.4, -x+0.8, -y'
   'z+0.7, -x+0.95, -y+0.05'
   '-z+1/2, x+1/4, y+0.15'
   '-z+0.55, -x+0.85, y+0.1'
   'z+0.65, x+0.35, -y+0.1'
   '-z+0.45, x+0.3, -y+0.15'
   'z+3/4, -x+0.9, y+0.05'
   'y, z+0.6, x+0.2'
   '-y, -z+0.4, -x+0.8'
   '-y+0.05, z+0.7, -x+0.95'
   'y+0.15, -z+1/2, x+1/4'
   'y+0.1, -z+0.55, -x+0.85'
   '-y+0.1, z+0.65, x+0.35'
   '-y+0.15, -z+0.45, x+0.3'
   'y+0.05, z+3/4, -x+0.9'
   'y+0.15, x+1/4, -z+1/2'
   '-y+0.05, -x+0.95, z+0.7'
   '-y, -x+0.8, -z+0.4'
   'y, x+0.2, z+0.6'
   'y+0.05, -x+0.9, z+3/4'
   '-y+0.15, x+0.3, -z+0.45'
   '-y+0.1, x+0.35, z+0.65'
   'y+0.1, -x+0.85, -z+0.55'
   'x+0.35, z+0.65, -y+0.1'
   '-x+0.85, -z+0.55, y+0.1'
   '-x+0.9, z+3/4, y+0.05'
   'x+0.3, -z+0.45, -y+0.15'
   '-x+0.8, -z+0.4, -y'
   'x+0.2, z+0.6, y'
   'x+1/4, -z+1/2, y+0.15'
   '-x+0.95, z+0.7, -y+0.05'
   'z+3/4, y+0.05, -x+0.9'
   '-z+0.45, -y+0.15, x+0.3'
   'z+0.65, -y+0.1, x+0.35'
   '-z+0.55, y+0.1, -x+0.85'
   '-z+1/2, y+0.15, x+1/4'
   'z+0.7, -y+0.05, -x+0.95'
   '-z+0.4, -y, -x+0.8'
   'z+0.6, y, x+0.2'
   'x+0.2, y+0.1, z+0.7'
   '-x+0.8, -y+0.1, -z+1/2'
   '-x+0.95, -y+0.15, z+0.6'
   'x+1/4, y+0.05, -z+0.4'
   '-x+0.85, y, -z+0.45'
   'x+0.35, -y, z+3/4'
   'x+0.3, -y+0.05, -z+0.55'
   '-x+0.9, y+0.15, z+0.65'
   'z+0.6, x+0.3, y+0.1'
   '-z+0.4, -x+0.9, -y+0.1'
   'z+0.7, -x+0.85, -y+0.15'
   '-z+1/2, x+0.35, y+0.05'
   '-z+0.55, -x+0.95, y'
   'z+0.65, x+1/4, -y'
   '-z+0.45, x+0.2, -y+0.05'
   'z+3/4, -x+0.8, y+0.15'
   'y, z+0.7, x+0.3'
   '-y, -z+1/2, -x+0.9'
   '-y+0.05, z+0.6, -x+0.85'
   'y+0.15, -z+0.4, x+0.35'
   'y+0.1, -z+0.45, -x+0.95'
   '-y+0.1, z+3/4, x+1/4'
   '-y+0.15, -z+0.55, x+0.2'
   'y+0.05, z+0.65, -x+0.8'
   'y+0.15, x+0.35, -z+0.4'
   '-y+0.05, -x+0.85, z+0.6'
   '-y, -x+0.9, -z+1/2'
   'y, x+0.3, z+0.7'
   'y+0.05, -x+0.8, z+0.65'
   '-y+0.15, x+0.2, -z+0.55'
   '-y+0.1, x+1/4, z+3/4'
   'y+0.1, -x+0.95, -z+0.45'
   'x+0.35, z+3/4, -y'
   '-x+0.85, -z+0.45, y'
   '-x+0.9, z+0.65, y+0.15'
   'x+0.3, -z+0.55, -y+0.05'
   '-x+0.8, -z+1/2, -y+0.1'
   'x+0.2, z+0.7, y+0.1'
   'x+1/4, -z+0.4, y+0.05'
   '-x+0.95, z+0.6, -y+0.15'
   'z+3/4, y+0.15, -x+0.8'
   '-z+0.45, -y+0.05, x+0.2'
   'z+0.65, -y, x+1/4'
   '-z+0.55, y, -x+0.95'
   '-z+1/2, y+0.05, x+0.35'
   'z+0.7, -y+0.15, -x+0.85'
   '-z+0.4, -y+0.1, -x+0.9'
   'z+0.6, y+0.1, x+0.3'
   'x+0.3, y, z+0.7'
   '-x+0.9, -y, -z+1/2'
   '-x+0.85, -y+0.05, z+0.6'
   'x+0.35, y+0.15, -z+0.4'
   '-x+0.95, y+0.1, -z+0.45'
   'x+1/4, -y+0.1, z+3/4'
   'x+0.2, -y+0.15, -z+0.55'
   '-x+0.8, y+0.05, z+0.65'
   'z+0.7, x+0.2, y+0.1'
   '-z+1/2, -x+0.8, -y+0.1'
   'z+0.6, -x+0.95, -y+0.15'
   '-z+0.4, x+1/4, y+0.05'
   '-z+0.45, -x+0.85, y'
   'z+3/4, x+0.35, -y'
   '-z+0.55, x+0.3, -y+0.05'
   'z+0.65, -x+0.9, y+0.15'
   'y+0.1, z+0.6, x+0.3'
   '-y+0.1, -z+0.4, -x+0.9'
   '-y+0.15, z+0.7, -x+0.85'
   'y+0.05, -z+1/2, x+0.35'
   'y, -z+0.55, -x+0.95'
   '-y, z+0.65, x+1/4'
   '-y+0.05, -z+0.45, x+0.2'
   'y+0.15, z+3/4, -x+0.8'
   'y+0.05, x+1/4, -z+0.4'
   '-y+0.15, -x+0.95, z+0.6'
   '-y+0.1, -x+0.8, -z+1/2'
   'y+0.1, x+0.2, z+0.7'
   'y+0.15, -x+0.9, z+0.65'
   '-y+0.05, x+0.3, -z+0.55'
   '-y, x+0.35, z+3/4'
   'y, -x+0.85, -z+0.45'
   'x+1/4, z+0.65, -y'
   '-x+0.95, -z+0.55, y'
   '-x+0.8, z+3/4, y+0.15'
   'x+0.2, -z+0.45, -y+0.05'
   '-x+0.9, -z+0.4, -y+0.1'
   'x+0.3, z+0.6, y+0.1'
   'x+0.35, -z+1/2, y+0.05'
   '-x+0.85, z+0.7, -y+0.15'
   'z+0.65, y+0.05, -x+0.8'
   '-z+0.55, -y+0.15, x+0.2'
   'z+3/4, -y+0.1, x+1/4'
   '-z+0.45, y+0.1, -x+0.95'
   '-z+0.4, y+0.15, x+0.35'
   'z+0.6, -y+0.05, -x+0.85'
   '-z+1/2, -y, -x+0.9'
   'z+0.7, y, x+0.3'
   'x+0.3, y+0.1, z+0.6'
   '-x+0.9, -y+0.1, -z+0.4'
   '-x+0.85, -y+0.15, z+0.7'
   'x+0.35, y+0.05, -z+1/2'
   '-x+0.95, y, -z+0.55'
   'x+1/4, -y, z+0.65'
   'x+0.2, -y+0.05, -z+0.45'
   '-x+0.8, y+0.15, z+3/4'
   'z+0.7, x+0.3, y'
   '-z+1/2, -x+0.9, -y'
   'z+0.6, -x+0.85, -y+0.05'
   '-z+0.4, x+0.35, y+0.15'
   '-z+0.45, -x+0.95, y+0.1'
   'z+3/4, x+1/4, -y+0.1'
   '-z+0.55, x+0.2, -y+0.15'
   'z+0.65, -x+0.8, y+0.05'
   'y+0.1, z+0.7, x+0.2'
   '-y+0.1, -z+1/2, -x+0.8'
   '-y+0.15, z+0.6, -x+0.95'
   'y+0.05, -z+0.4, x+1/4'
   'y, -z+0.45, -x+0.85'
   '-y, z+3/4, x+0.35'
   '-y+0.05, -z+0.55, x+0.3'
   'y+0.15, z+0.65, -x+0.9'
   'y+0.05, x+0.35, -z+1/2'
   '-y+0.15, -x+0.85, z+0.7'
   '-y+0.1, -x+0.9, -z+0.4'
   'y+0.1, x+0.3, z+0.6'
   'y+0.15, -x+0.8, z+3/4'
   '-y+0.05, x+0.2, -z+0.45'
   '-y, x+1/4, z+0.65'
   'y, -x+0.95, -z+0.55'
   'x+1/4, z+3/4, -y+0.1'
   '-x+0.95, -z+0.45, y+0.1'
   '-x+0.8, z+0.65, y+0.05'
   'x+0.2, -z+0.55, -y+0.15'
   '-x+0.9, -z+1/2, -y'
   'x+0.3, z+0.7, y'
   'x+0.35, -z+0.4, y+0.15'
   '-x+0.85, z+0.6, -y+0.05'
   'z+0.65, y+0.15, -x+0.9'
   '-z+0.55, -y+0.05, x+0.3'
   'z+3/4, -y, x+0.35'
   '-z+0.45, y, -x+0.85'
   '-z+0.4, y+0.05, x+1/4'
   'z+0.6, -y+0.15, -x+0.95'
   '-z+1/2, -y+0.1, -x+0.8'
   'z+0.7, y+0.1, x+0.2'
   'x+0.2, y, z+0.8'
   '-x+0.8, -y, -z+0.2'
   '-x+0.95, -y+0.05, z+0.9'
   'x+1/4, y+0.15, -z+0.3'
   '-x+0.85, y+0.1, -z+0.35'
   'x+0.35, -y+0.1, z+0.85'
   'x+0.3, -y+0.15, -z+1/4'
   '-x+0.9, y+0.05, z+0.95'
   'z+0.8, x+0.2, y'
   '-z+0.2, -x+0.8, -y'
   'z+0.9, -x+0.95, -y+0.05'
   '-z+0.3, x+1/4, y+0.15'
   '-z+0.35, -x+0.85, y+0.1'
   'z+0.85, x+0.35, -y+0.1'
   '-z+1/4, x+0.3, -y+0.15'
   'z+0.95, -x+0.9, y+0.05'
   'y, z+0.8, x+0.2'
   '-y, -z+0.2, -x+0.8'
   '-y+0.05, z+0.9, -x+0.95'
   'y+0.15, -z+0.3, x+1/4'
   'y+0.1, -z+0.35, -x+0.85'
   '-y+0.1, z+0.85, x+0.35'
   '-y+0.15, -z+1/4, x+0.3'
   'y+0.05, z+0.95, -x+0.9'
   'y+0.15, x+1/4, -z+0.3'
   '-y+0.05, -x+0.95, z+0.9'
   '-y, -x+0.8, -z+0.2'
   'y, x+0.2, z+0.8'
   'y+0.05, -x+0.9, z+0.95'
   '-y+0.15, x+0.3, -z+1/4'
   '-y+0.1, x+0.35, z+0.85'
   'y+0.1, -x+0.85, -z+0.35'
   'x+0.35, z+0.85, -y+0.1'
   '-x+0.85, -z+0.35, y+0.1'
   '-x+0.9, z+0.95, y+0.05'
   'x+0.3, -z+1/4, -y+0.15'
   '-x+0.8, -z+0.2, -y'
   'x+0.2, z+0.8, y'
   'x+1/4, -z+0.3, y+0.15'
   '-x+0.95, z+0.9, -y+0.05'
   'z+0.95, y+0.05, -x+0.9'
   '-z+1/4, -y+0.15, x+0.3'
   'z+0.85, -y+0.1, x+0.35'
   '-z+0.35, y+0.1, -x+0.85'
   '-z+0.3, y+0.15, x+1/4'
   'z+0.9, -y+0.05, -x+0.95'
   '-z+0.2, -y, -x+0.8'
   'z+0.8, y, x+0.2'
   'x+0.2, y+0.1, z+0.9'
   '-x+0.8, -y+0.1, -z+0.3'
   '-x+0.95, -y+0.15, z+0.8'
   'x+1/4, y+0.05, -z+0.2'
   '-x+0.85, y, -z+1/4'
   'x+0.35, -y, z+0.95'
   'x+0.3, -y+0.05, -z+0.35'
   '-x+0.9, y+0.15, z+0.85'
   'z+0.8, x+0.3, y+0.1'
   '-z+0.2, -x+0.9, -y+0.1'
   'z+0.9, -x+0.85, -y+0.15'
   '-z+0.3, x+0.35, y+0.05'
   '-z+0.35, -x+0.95, y'
   'z+0.85, x+1/4, -y'
   '-z+1/4, x+0.2, -y+0.05'
   'z+0.95, -x+0.8, y+0.15'
   'y, z+0.9, x+0.3'
   '-y, -z+0.3, -x+0.9'
   '-y+0.05, z+0.8, -x+0.85'
   'y+0.15, -z+0.2, x+0.35'
   'y+0.1, -z+1/4, -x+0.95'
   '-y+0.1, z+0.95, x+1/4'
   '-y+0.15, -z+0.35, x+0.2'
   'y+0.05, z+0.85, -x+0.8'
   'y+0.15, x+0.35, -z+0.2'
   '-y+0.05, -x+0.85, z+0.8'
   '-y, -x+0.9, -z+0.3'
   'y, x+0.3, z+0.9'
   'y+0.05, -x+0.8, z+0.85'
   '-y+0.15, x+0.2, -z+0.35'
   '-y+0.1, x+1/4, z+0.95'
   'y+0.1, -x+0.95, -z+1/4'
   'x+0.35, z+0.95, -y'
   '-x+0.85, -z+1/4, y'
   '-x+0.9, z+0.85, y+0.15'
   'x+0.3, -z+0.35, -y+0.05'
   '-x+0.8, -z+0.3, -y+0.1'
   'x+0.2, z+0.9, y+0.1'
   'x+1/4, -z+0.2, y+0.05'
   '-x+0.95, z+0.8, -y+0.15'
   'z+0.95, y+0.15, -x+0.8'
   '-z+1/4, -y+0.05, x+0.2'
   'z+0.85, -y, x+1/4'
   '-z+0.35, y, -x+0.95'
   '-z+0.3, y+0.05, x+0.35'
   'z+0.9, -y+0.15, -x+0.85'
   '-z+0.2, -y+0.1, -x+0.9'
   'z+0.8, y+0.1, x+0.3'
   'x+0.3, y, z+0.9'
   '-x+0.9, -y, -z+0.3'
   '-x+0.85, -y+0.05, z+0.8'
   'x+0.35, y+0.15, -z+0.2'
   '-x+0.95, y+0.1, -z+1/4'
   'x+1/4, -y+0.1, z+0.95'
   'x+0.2, -y+0.15, -z+0.35'
   '-x+0.8, y+0.05, z+0.85'
   'z+0.9, x+0.2, y+0.1'
   '-z+0.3, -x+0.8, -y+0.1'
   'z+0.8, -x+0.95, -y+0.15'
   '-z+0.2, x+1/4, y+0.05'
   '-z+1/4, -x+0.85, y'
   'z+0.95, x+0.35, -y'
   '-z+0.35, x+0.3, -y+0.05'
   'z+0.85, -x+0.9, y+0.15'
   'y+0.1, z+0.8, x+0.3'
   '-y+0.1, -z+0.2, -x+0.9'
   '-y+0.15, z+0.9, -x+0.85'
   'y+0.05, -z+0.3, x+0.35'
   'y, -z+0.35, -x+0.95'
   '-y, z+0.85, x+1/4'
   '-y+0.05, -z+1/4, x+0.2'
   'y+0.15, z+0.95, -x+0.8'
   'y+0.05, x+1/4, -z+0.2'
   '-y+0.15, -x+0.95, z+0.8'
   '-y+0.1, -x+0.8, -z+0.3'
   'y+0.1, x+0.2, z+0.9'
   'y+0.15, -x+0.9, z+0.85'
   '-y+0.05, x+0.3, -z+0.35'
   '-y, x+0.35, z+0.95'
   'y, -x+0.85, -z+1/4'
   'x+1/4, z+0.85, -y'
   '-x+0.95, -z+0.35, y'
   '-x+0.8, z+0.95, y+0.15'
   'x+0.2, -z+1/4, -y+0.05'
   '-x+0.9, -z+0.2, -y+0.1'
   'x+0.3, z+0.8, y+0.1'
   'x+0.35, -z+0.3, y+0.05'
   '-x+0.85, z+0.9, -y+0.15'
   'z+0.85, y+0.05, -x+0.8'
   '-z+0.35, -y+0.15, x+0.2'
   'z+0.95, -y+0.1, x+1/4'
   '-z+1/4, y+0.1, -x+0.95'
   '-z+0.2, y+0.15, x+0.35'
   'z+0.8, -y+0.05, -x+0.85'
   '-z+0.3, -y, -x+0.9'
   'z+0.9, y, x+0.3'
   'x+0.3, y+0.1, z+0.8'
   '-x+0.9, -y+0.1, -z+0.2'
   '-x+0.85, -y+0.15, z+0.9'
   'x+0.35, y+0.05, -z+0.3'
   '-x+0.95, y, -z+0.35'
   'x+1/4, -y, z+0.85'
   'x+0.2, -y+0.05, -z+1/4'
   '-x+0.8, y+0.15, z+0.95'
   'z+0.9, x+0.3, y'
   '-z+0.3, -x+0.9, -y'
   'z+0.8, -x+0.85, -y+0.05'
   '-z+0.2, x+0.35, y+0.15'
   '-z+1/4, -x+0.95, y+0.1'
   'z+0.95, x+1/4, -y+0.1'
   '-z+0.35, x+0.2, -y+0.15'
   'z+0.85, -x+0.8, y+0.05'
   'y+0.1, z+0.9, x+0.2'
   '-y+0.1, -z+0.3, -x+0.8'
   '-y+0.15, z+0.8, -x+0.95'
   'y+0.05, -z+0.2, x+1/4'
   'y, -z+1/4, -x+0.85'
   '-y, z+0.95, x+0.35'
   '-y+0.05, -z+0.35, x+0.3'
   'y+0.15, z+0.85, -x+0.9'
   'y+0.05, x+0.35, -z+0.3'
   '-y+0.15, -x+0.85, z+0.9'
   '-y+0.1, -x+0.9, -z+0.2'
   'y+0.1, x+0.3, z+0.8'
   'y+0.15, -x+0.8, z+0.95'
   '-y+0.05, x+0.2, -z+1/4'
   '-y, x+1/4, z+0.85'
   'y, -x+0.95, -z+0.35'
   'x+1/4, z+0.95, -y+0.1'
   '-x+0.95, -z+1/4, y+0.1'
   '-x+0.8, z+0.85, y+0.05'
   'x+0.2, -z+0.35, -y+0.15'
   '-x+0.9, -z+0.3, -y'
   'x+0.3, z+0.9, y'
   'x+0.35, -z+0.2, y+0.15'
   '-x+0.85, z+0.8, -y+0.05'
   'z+0.85, y+0.15, -x+0.9'
   '-z+0.35, -y+0.05, x+0.3'
   'z+0.95, -y, x+0.35'
   '-z+1/4, y, -x+0.85'
   '-z+0.2, y+0.05, x+1/4'
   'z+0.8, -y+0.15, -x+0.95'
   '-z+0.3, -y+0.1, -x+0.8'
   'z+0.9, y+0.1, x+0.2'
   'x+0.2, y+0.2, z'
   '-x+0.8, -y+0.8, -z'
   '-x+0.95, -y+0.85, z+0.1'
   'x+1/4, y+0.35, -z+0.1'
   '-x+0.85, y+0.3, -z+0.15'
   'x+0.35, -y+0.9, z+0.05'
   'x+0.3, -y+0.95, -z+0.05'
   '-x+0.9, y+1/4, z+0.15'
   'z, x+0.2, y+0.2'
   '-z, -x+0.8, -y+0.8'
   'z+0.1, -x+0.95, -y+0.85'
   '-z+0.1, x+1/4, y+0.35'
   '-z+0.15, -x+0.85, y+0.3'
   'z+0.05, x+0.35, -y+0.9'
   '-z+0.05, x+0.3, -y+0.95'
   'z+0.15, -x+0.9, y+1/4'
   'y+0.2, z, x+0.2'
   '-y+0.8, -z, -x+0.8'
   '-y+0.85, z+0.1, -x+0.95'
   'y+0.35, -z+0.1, x+1/4'
   'y+0.3, -z+0.15, -x+0.85'
   '-y+0.9, z+0.05, x+0.35'
   '-y+0.95, -z+0.05, x+0.3'
   'y+1/4, z+0.15, -x+0.9'
   'y+0.35, x+1/4, -z+0.1'
   '-y+0.85, -x+0.95, z+0.1'
   '-y+0.8, -x+0.8, -z'
   'y+0.2, x+0.2, z'
   'y+1/4, -x+0.9, z+0.15'
   '-y+0.95, x+0.3, -z+0.05'
   '-y+0.9, x+0.35, z+0.05'
   'y+0.3, -x+0.85, -z+0.15'
   'x+0.35, z+0.05, -y+0.9'
   '-x+0.85, -z+0.15, y+0.3'
   '-x+0.9, z+0.15, y+1/4'
   'x+0.3, -z+0.05, -y+0.95'
   '-x+0.8, -z, -y+0.8'
   'x+0.2, z, y+0.2'
   'x+1/4, -z+0.1, y+0.35'
   '-x+0.95, z+0.1, -y+0.85'
   'z+0.15, y+1/4, -x+0.9'
   '-z+0.05, -y+0.95, x+0.3'
   'z+0.05, -y+0.9, x+0.35'
   '-z+0.15, y+0.3, -x+0.85'
   '-z+0.1, y+0.35, x+1/4'
   'z+0.1, -y+0.85, -x+0.95'
   '-z, -y+0.8, -x+0.8'
   'z, y+0.2, x+0.2'
   'x+0.2, y+0.3, z+0.1'
   '-x+0.8, -y+0.9, -z+0.1'
   '-x+0.95, -y+0.95, z'
   'x+1/4, y+1/4, -z'
   '-x+0.85, y+0.2, -z+0.05'
   'x+0.35, -y+0.8, z+0.15'
   'x+0.3, -y+0.85, -z+0.15'
   '-x+0.9, y+0.35, z+0.05'
   'z, x+0.3, y+0.3'
   '-z, -x+0.9, -y+0.9'
   'z+0.1, -x+0.85, -y+0.95'
   '-z+0.1, x+0.35, y+1/4'
   '-z+0.15, -x+0.95, y+0.2'
   'z+0.05, x+1/4, -y+0.8'
   '-z+0.05, x+0.2, -y+0.85'
   'z+0.15, -x+0.8, y+0.35'
   'y+0.2, z+0.1, x+0.3'
   '-y+0.8, -z+0.1, -x+0.9'
   '-y+0.85, z, -x+0.85'
   'y+0.35, -z, x+0.35'
   'y+0.3, -z+0.05, -x+0.95'
   '-y+0.9, z+0.15, x+1/4'
   '-y+0.95, -z+0.15, x+0.2'
   'y+1/4, z+0.05, -x+0.8'
   'y+0.35, x+0.35, -z'
   '-y+0.85, -x+0.85, z'
   '-y+0.8, -x+0.9, -z+0.1'
   'y+0.2, x+0.3, z+0.1'
   'y+1/4, -x+0.8, z+0.05'
   '-y+0.95, x+0.2, -z+0.15'
   '-y+0.9, x+1/4, z+0.15'
   'y+0.3, -x+0.95, -z+0.05'
   'x+0.35, z+0.15, -y+0.8'
   '-x+0.85, -z+0.05, y+0.2'
   '-x+0.9, z+0.05, y+0.35'
   'x+0.3, -z+0.15, -y+0.85'
   '-x+0.8, -z+0.1, -y+0.9'
   'x+0.2, z+0.1, y+0.3'
   'x+1/4, -z, y+1/4'
   '-x+0.95, z, -y+0.95'
   'z+0.15, y+0.35, -x+0.8'
   '-z+0.05, -y+0.85, x+0.2'
   'z+0.05, -y+0.8, x+1/4'
   '-z+0.15, y+0.2, -x+0.95'
   '-z+0.1, y+1/4, x+0.35'
   'z+0.1, -y+0.95, -x+0.85'
   '-z, -y+0.9, -x+0.9'
   'z, y+0.3, x+0.3'
   'x+0.3, y+0.2, z+0.1'
   '-x+0.9, -y+0.8, -z+0.1'
   '-x+0.85, -y+0.85, z'
   'x+0.35, y+0.35, -z'
   '-x+0.95, y+0.3, -z+0.05'
   'x+1/4, -y+0.9, z+0.15'
   'x+0.2, -y+0.95, -z+0.15'
   '-x+0.8, y+1/4, z+0.05'
   'z+0.1, x+0.2, y+0.3'
   '-z+0.1, -x+0.8, -y+0.9'
   'z, -x+0.95, -y+0.95'
   '-z, x+1/4, y+1/4'
   '-z+0.05, -x+0.85, y+0.2'
   'z+0.15, x+0.35, -y+0.8'
   '-z+0.15, x+0.3, -y+0.85'
   'z+0.05, -x+0.9, y+0.35'
   'y+0.3, z, x+0.3'
   '-y+0.9, -z, -x+0.9'
   '-y+0.95, z+0.1, -x+0.85'
   'y+1/4, -z+0.1, x+0.35'
   'y+0.2, -z+0.15, -x+0.95'
   '-y+0.8, z+0.05, x+1/4'
   '-y+0.85, -z+0.05, x+0.2'
   'y+0.35, z+0.15, -x+0.8'
   'y+1/4, x+1/4, -z'
   '-y+0.95, -x+0.95, z'
   '-y+0.9, -x+0.8, -z+0.1'
   'y+0.3, x+0.2, z+0.1'
   'y+0.35, -x+0.9, z+0.05'
   '-y+0.85, x+0.3, -z+0.15'
   '-y+0.8, x+0.35, z+0.15'
   'y+0.2, -x+0.85, -z+0.05'
   'x+1/4, z+0.05, -y+0.8'
   '-x+0.95, -z+0.15, y+0.2'
   '-x+0.8, z+0.15, y+0.35'
   'x+0.2, -z+0.05, -y+0.85'
   '-x+0.9, -z, -y+0.9'
   'x+0.3, z, y+0.3'
   'x+0.35, -z+0.1, y+1/4'
   '-x+0.85, z+0.1, -y+0.95'
   'z+0.05, y+1/4, -x+0.8'
   '-z+0.15, -y+0.95, x+0.2'
   'z+0.15, -y+0.9, x+1/4'
   '-z+0.05, y+0.3, -x+0.95'
   '-z, y+0.35, x+0.35'
   'z, -y+0.85, -x+0.85'
   '-z+0.1, -y+0.8, -x+0.9'
   'z+0.1, y+0.2, x+0.3'
   'x+0.3, y+0.3, z'
   '-x+0.9, -y+0.9, -z'
   '-x+0.85, -y+0.95, z+0.1'
   'x+0.35, y+1/4, -z+0.1'
   '-x+0.95, y+0.2, -z+0.15'
   'x+1/4, -y+0.8, z+0.05'
   'x+0.2, -y+0.85, -z+0.05'
   '-x+0.8, y+0.35, z+0.15'
   'z+0.1, x+0.3, y+0.2'
   '-z+0.1, -x+0.9, -y+0.8'
   'z, -x+0.85, -y+0.85'
   '-z, x+0.35, y+0.35'
   '-z+0.05, -x+0.95, y+0.3'
   'z+0.15, x+1/4, -y+0.9'
   '-z+0.15, x+0.2, -y+0.95'
   'z+0.05, -x+0.8, y+1/4'
   'y+0.3, z+0.1, x+0.2'
   '-y+0.9, -z+0.1, -x+0.8'
   '-y+0.95, z, -x+0.95'
   'y+1/4, -z, x+1/4'
   'y+0.2, -z+0.05, -x+0.85'
   '-y+0.8, z+0.15, x+0.35'
   '-y+0.85, -z+0.15, x+0.3'
   'y+0.35, z+0.05, -x+0.9'
   'y+1/4, x+0.35, -z+0.1'
   '-y+0.95, -x+0.85, z+0.1'
   '-y+0.9, -x+0.9, -z'
   'y+0.3, x+0.3, z'
   'y+0.35, -x+0.8, z+0.15'
   '-y+0.85, x+0.2, -z+0.05'
   '-y+0.8, x+1/4, z+0.05'
   'y+0.2, -x+0.95, -z+0.15'
   'x+1/4, z+0.15, -y+0.9'
   '-x+0.95, -z+0.05, y+0.3'
   '-x+0.8, z+0.05, y+1/4'
   'x+0.2, -z+0.15, -y+0.95'
   '-x+0.9, -z+0.1, -y+0.8'
   'x+0.3, z+0.1, y+0.2'
   'x+0.35, -z, y+0.35'
   '-x+0.85, z, -y+0.85'
   'z+0.05, y+0.35, -x+0.9'
   '-z+0.15, -y+0.85, x+0.3'
   'z+0.15, -y+0.8, x+0.35'
   '-z+0.05, y+0.2, -x+0.85'
   '-z, y+1/4, x+1/4'
   'z, -y+0.95, -x+0.95'
   '-z+0.1, -y+0.9, -x+0.8'
   'z+0.1, y+0.3, x+0.2'
   'x+0.2, y+0.2, z+0.2'
   '-x+0.8, -y+0.8, -z+0.8'
   '-x+0.95, -y+0.85, z+0.3'
   'x+1/4, y+0.35, -z+0.9'
   '-x+0.85, y+0.3, -z+0.95'
   'x+0.35, -y+0.9, z+1/4'
   'x+0.3, -y+0.95, -z+0.85'
   '-x+0.9, y+1/4, z+0.35'
   'z+0.2, x+0.2, y+0.2'
   '-z+0.8, -x+0.8, -y+0.8'
   'z+0.3, -x+0.95, -y+0.85'
   '-z+0.9, x+1/4, y+0.35'
   '-z+0.95, -x+0.85, y+0.3'
   'z+1/4, x+0.35, -y+0.9'
   '-z+0.85, x+0.3, -y+0.95'
   'z+0.35, -x+0.9, y+1/4'
   'y+0.2, z+0.2, x+0.2'
   '-y+0.8, -z+0.8, -x+0.8'
   '-y+0.85, z+0.3, -x+0.95'
   'y+0.35, -z+0.9, x+1/4'
   'y+0.3, -z+0.95, -x+0.85'
   '-y+0.9, z+1/4, x+0.35'
   '-y+0.95, -z+0.85, x+0.3'
   'y+1/4, z+0.35, -x+0.9'
   'y+0.35, x+1/4, -z+0.9'
   '-y+0.85, -x+0.95, z+0.3'
   '-y+0.8, -x+0.8, -z+0.8'
   'y+0.2, x+0.2, z+0.2'
   'y+1/4, -x+0.9, z+0.35'
   '-y+0.95, x+0.3, -z+0.85'
   '-y+0.9, x+0.35, z+1/4'
   'y+0.3, -x+0.85, -z+0.95'
   'x+0.35, z+1/4, -y+0.9'
   '-x+0.85, -z+0.95, y+0.3'
   '-x+0.9, z+0.35, y+1/4'
   'x+0.3, -z+0.85, -y+0.95'
   '-x+0.8, -z+0.8, -y+0.8'
   'x+0.2, z+0.2, y+0.2'
   'x+1/4, -z+0.9, y+0.35'
   '-x+0.95, z+0.3, -y+0.85'
   'z+0.35, y+1/4, -x+0.9'
   '-z+0.85, -y+0.95, x+0.3'
   'z+1/4, -y+0.9, x+0.35'
   '-z+0.95, y+0.3, -x+0.85'
   '-z+0.9, y+0.35, x+1/4'
   'z+0.3, -y+0.85, -x+0.95'
   '-z+0.8, -y+0.8, -x+0.8'
   'z+0.2, y+0.2, x+0.2'
   'x+0.2, y+0.3, z+0.3'
   '-x+0.8, -y+0.9, -z+0.9'
   '-x+0.95, -y+0.95, z+0.2'
   'x+1/4, y+1/4, -z+0.8'
   '-x+0.85, y+0.2, -z+0.85'
   'x+0.35, -y+0.8, z+0.35'
   'x+0.3, -y+0.85, -z+0.95'
   '-x+0.9, y+0.35, z+1/4'
   'z+0.2, x+0.3, y+0.3'
   '-z+0.8, -x+0.9, -y+0.9'
   'z+0.3, -x+0.85, -y+0.95'
   '-z+0.9, x+0.35, y+1/4'
   '-z+0.95, -x+0.95, y+0.2'
   'z+1/4, x+1/4, -y+0.8'
   '-z+0.85, x+0.2, -y+0.85'
   'z+0.35, -x+0.8, y+0.35'
   'y+0.2, z+0.3, x+0.3'
   '-y+0.8, -z+0.9, -x+0.9'
   '-y+0.85, z+0.2, -x+0.85'
   'y+0.35, -z+0.8, x+0.35'
   'y+0.3, -z+0.85, -x+0.95'
   '-y+0.9, z+0.35, x+1/4'
   '-y+0.95, -z+0.95, x+0.2'
   'y+1/4, z+1/4, -x+0.8'
   'y+0.35, x+0.35, -z+0.8'
   '-y+0.85, -x+0.85, z+0.2'
   '-y+0.8, -x+0.9, -z+0.9'
   'y+0.2, x+0.3, z+0.3'
   'y+1/4, -x+0.8, z+1/4'
   '-y+0.95, x+0.2, -z+0.95'
   '-y+0.9, x+1/4, z+0.35'
   'y+0.3, -x+0.95, -z+0.85'
   'x+0.35, z+0.35, -y+0.8'
   '-x+0.85, -z+0.85, y+0.2'
   '-x+0.9, z+1/4, y+0.35'
   'x+0.3, -z+0.95, -y+0.85'
   '-x+0.8, -z+0.9, -y+0.9'
   'x+0.2, z+0.3, y+0.3'
   'x+1/4, -z+0.8, y+1/4'
   '-x+0.95, z+0.2, -y+0.95'
   'z+0.35, y+0.35, -x+0.8'
   '-z+0.85, -y+0.85, x+0.2'
   'z+1/4, -y+0.8, x+1/4'
   '-z+0.95, y+0.2, -x+0.95'
   '-z+0.9, y+1/4, x+0.35'
   'z+0.3, -y+0.95, -x+0.85'
   '-z+0.8, -y+0.9, -x+0.9'
   'z+0.2, y+0.3, x+0.3'
   'x+0.3, y+0.2, z+0.3'
   '-x+0.9, -y+0.8, -z+0.9'
   '-x+0.85, -y+0.85, z+0.2'
   'x+0.35, y+0.35, -z+0.8'
   '-x+0.95, y+0.3, -z+0.85'
   'x+1/4, -y+0.9, z+0.35'
   'x+0.2, -y+0.95, -z+0.95'
   '-x+0.8, y+1/4, z+1/4'
   'z+0.3, x+0.2, y+0.3'
   '-z+0.9, -x+0.8, -y+0.9'
   'z+0.2, -x+0.95, -y+0.95'
   '-z+0.8, x+1/4, y+1/4'
   '-z+0.85, -x+0.85, y+0.2'
   'z+0.35, x+0.35, -y+0.8'
   '-z+0.95, x+0.3, -y+0.85'
   'z+1/4, -x+0.9, y+0.35'
   'y+0.3, z+0.2, x+0.3'
   '-y+0.9, -z+0.8, -x+0.9'
   '-y+0.95, z+0.3, -x+0.85'
   'y+1/4, -z+0.9, x+0.35'
   'y+0.2, -z+0.95, -x+0.95'
   '-y+0.8, z+1/4, x+1/4'
   '-y+0.85, -z+0.85, x+0.2'
   'y+0.35, z+0.35, -x+0.8'
   'y+1/4, x+1/4, -z+0.8'
   '-y+0.95, -x+0.95, z+0.2'
   '-y+0.9, -x+0.8, -z+0.9'
   'y+0.3, x+0.2, z+0.3'
   'y+0.35, -x+0.9, z+1/4'
   '-y+0.85, x+0.3, -z+0.95'
   '-y+0.8, x+0.35, z+0.35'
   'y+0.2, -x+0.85, -z+0.85'
   'x+1/4, z+1/4, -y+0.8'
   '-x+0.95, -z+0.95, y+0.2'
   '-x+0.8, z+0.35, y+0.35'
   'x+0.2, -z+0.85, -y+0.85'
   '-x+0.9, -z+0.8, -y+0.9'
   'x+0.3, z+0.2, y+0.3'
   'x+0.35, -z+0.9, y+1/4'
   '-x+0.85, z+0.3, -y+0.95'
   'z+1/4, y+1/4, -x+0.8'
   '-z+0.95, -y+0.95, x+0.2'
   'z+0.35, -y+0.9, x+1/4'
   '-z+0.85, y+0.3, -x+0.95'
   '-z+0.8, y+0.35, x+0.35'
   'z+0.2, -y+0.85, -x+0.85'
   '-z+0.9, -y+0.8, -x+0.9'
   'z+0.3, y+0.2, x+0.3'
   'x+0.3, y+0.3, z+0.2'
   '-x+0.9, -y+0.9, -z+0.8'
   '-x+0.85, -y+0.95, z+0.3'
   'x+0.35, y+1/4, -z+0.9'
   '-x+0.95, y+0.2, -z+0.95'
   'x+1/4, -y+0.8, z+1/4'
   'x+0.2, -y+0.85, -z+0.85'
   '-x+0.8, y+0.35, z+0.35'
   'z+0.3, x+0.3, y+0.2'
   '-z+0.9, -x+0.9, -y+0.8'
   'z+0.2, -x+0.85, -y+0.85'
   '-z+0.8, x+0.35, y+0.35'
   '-z+0.85, -x+0.95, y+0.3'
   'z+0.35, x+1/4, -y+0.9'
   '-z+0.95, x+0.2, -y+0.95'
   'z+1/4, -x+0.8, y+1/4'
   'y+0.3, z+0.3, x+0.2'
   '-y+0.9, -z+0.9, -x+0.8'
   '-y+0.95, z+0.2, -x+0.95'
   'y+1/4, -z+0.8, x+1/4'
   'y+0.2, -z+0.85, -x+0.85'
   '-y+0.8, z+0.35, x+0.35'
   '-y+0.85, -z+0.95, x+0.3'
   'y+0.35, z+1/4, -x+0.9'
   'y+1/4, x+0.35, -z+0.9'
   '-y+0.95, -x+0.85, z+0.3'
   '-y+0.9, -x+0.9, -z+0.8'
   'y+0.3, x+0.3, z+0.2'
   'y+0.35, -x+0.8, z+0.35'
   '-y+0.85, x+0.2, -z+0.85'
   '-y+0.8, x+1/4, z+1/4'
   'y+0.2, -x+0.95, -z+0.95'
   'x+1/4, z+0.35, -y+0.9'
   '-x+0.95, -z+0.85, y+0.3'
   '-x+0.8, z+1/4, y+1/4'
   'x+0.2, -z+0.95, -y+0.95'
   '-x+0.9, -z+0.9, -y+0.8'
   'x+0.3, z+0.3, y+0.2'
   'x+0.35, -z+0.8, y+0.35'
   '-x+0.85, z+0.2, -y+0.85'
   'z+1/4, y+0.35, -x+0.9'
   '-z+0.95, -y+0.85, x+0.3'
   'z+0.35, -y+0.8, x+0.35'
   '-z+0.85, y+0.2, -x+0.85'
   '-z+0.8, y+1/4, x+1/4'
   'z+0.2, -y+0.95, -x+0.95'
   '-z+0.9, -y+0.9, -x+0.8'
   'z+0.3, y+0.3, x+0.2'
   'x+0.2, y+0.2, z+0.4'
   '-x+0.8, -y+0.8, -z+0.6'
   '-x+0.95, -y+0.85, z+1/2'
   'x+1/4, y+0.35, -z+0.7'
   '-x+0.85, y+0.3, -z+3/4'
   'x+0.35, -y+0.9, z+0.45'
   'x+0.3, -y+0.95, -z+0.65'
   '-x+0.9, y+1/4, z+0.55'
   'z+0.4, x+0.2, y+0.2'
   '-z+0.6, -x+0.8, -y+0.8'
   'z+1/2, -x+0.95, -y+0.85'
   '-z+0.7, x+1/4, y+0.35'
   '-z+3/4, -x+0.85, y+0.3'
   'z+0.45, x+0.35, -y+0.9'
   '-z+0.65, x+0.3, -y+0.95'
   'z+0.55, -x+0.9, y+1/4'
   'y+0.2, z+0.4, x+0.2'
   '-y+0.8, -z+0.6, -x+0.8'
   '-y+0.85, z+1/2, -x+0.95'
   'y+0.35, -z+0.7, x+1/4'
   'y+0.3, -z+3/4, -x+0.85'
   '-y+0.9, z+0.45, x+0.35'
   '-y+0.95, -z+0.65, x+0.3'
   'y+1/4, z+0.55, -x+0.9'
   'y+0.35, x+1/4, -z+0.7'
   '-y+0.85, -x+0.95, z+1/2'
   '-y+0.8, -x+0.8, -z+0.6'
   'y+0.2, x+0.2, z+0.4'
   'y+1/4, -x+0.9, z+0.55'
   '-y+0.95, x+0.3, -z+0.65'
   '-y+0.9, x+0.35, z+0.45'
   'y+0.3, -x+0.85, -z+3/4'
   'x+0.35, z+0.45, -y+0.9'
   '-x+0.85, -z+3/4, y+0.3'
   '-x+0.9, z+0.55, y+1/4'
   'x+0.3, -z+0.65, -y+0.95'
   '-x+0.8, -z+0.6, -y+0.8'
   'x+0.2, z+0.4, y+0.2'
   'x+1/4, -z+0.7, y+0.35'
   '-x+0.95, z+1/2, -y+0.85'
   'z+0.55, y+1/4, -x+0.9'
   '-z+0.65, -y+0.95, x+0.3'
   'z+0.45, -y+0.9, x+0.35'
   '-z+3/4, y+0.3, -x+0.85'
   '-z+0.7, y+0.35, x+1/4'
   'z+1/2, -y+0.85, -x+0.95'
   '-z+0.6, -y+0.8, -x+0.8'
   'z+0.4, y+0.2, x+0.2'
   'x+0.2, y+0.3, z+1/2'
   '-x+0.8, -y+0.9, -z+0.7'
   '-x+0.95, -y+0.95, z+0.4'
   'x+1/4, y+1/4, -z+0.6'
   '-x+0.85, y+0.2, -z+0.65'
   'x+0.35, -y+0.8, z+0.55'
   'x+0.3, -y+0.85, -z+3/4'
   '-x+0.9, y+0.35, z+0.45'
   'z+0.4, x+0.3, y+0.3'
   '-z+0.6, -x+0.9, -y+0.9'
   'z+1/2, -x+0.85, -y+0.95'
   '-z+0.7, x+0.35, y+1/4'
   '-z+3/4, -x+0.95, y+0.2'
   'z+0.45, x+1/4, -y+0.8'
   '-z+0.65, x+0.2, -y+0.85'
   'z+0.55, -x+0.8, y+0.35'
   'y+0.2, z+1/2, x+0.3'
   '-y+0.8, -z+0.7, -x+0.9'
   '-y+0.85, z+0.4, -x+0.85'
   'y+0.35, -z+0.6, x+0.35'
   'y+0.3, -z+0.65, -x+0.95'
   '-y+0.9, z+0.55, x+1/4'
   '-y+0.95, -z+3/4, x+0.2'
   'y+1/4, z+0.45, -x+0.8'
   'y+0.35, x+0.35, -z+0.6'
   '-y+0.85, -x+0.85, z+0.4'
   '-y+0.8, -x+0.9, -z+0.7'
   'y+0.2, x+0.3, z+1/2'
   'y+1/4, -x+0.8, z+0.45'
   '-y+0.95, x+0.2, -z+3/4'
   '-y+0.9, x+1/4, z+0.55'
   'y+0.3, -x+0.95, -z+0.65'
   'x+0.35, z+0.55, -y+0.8'
   '-x+0.85, -z+0.65, y+0.2'
   '-x+0.9, z+0.45, y+0.35'
   'x+0.3, -z+3/4, -y+0.85'
   '-x+0.8, -z+0.7, -y+0.9'
   'x+0.2, z+1/2, y+0.3'
   'x+1/4, -z+0.6, y+1/4'
   '-x+0.95, z+0.4, -y+0.95'
   'z+0.55, y+0.35, -x+0.8'
   '-z+0.65, -y+0.85, x+0.2'
   'z+0.45, -y+0.8, x+1/4'
   '-z+3/4, y+0.2, -x+0.95'
   '-z+0.7, y+1/4, x+0.35'
   'z+1/2, -y+0.95, -x+0.85'
   '-z+0.6, -y+0.9, -x+0.9'
   'z+0.4, y+0.3, x+0.3'
   'x+0.3, y+0.2, z+1/2'
   '-x+0.9, -y+0.8, -z+0.7'
   '-x+0.85, -y+0.85, z+0.4'
   'x+0.35, y+0.35, -z+0.6'
   '-x+0.95, y+0.3, -z+0.65'
   'x+1/4, -y+0.9, z+0.55'
   'x+0.2, -y+0.95, -z+3/4'
   '-x+0.8, y+1/4, z+0.45'
   'z+1/2, x+0.2, y+0.3'
   '-z+0.7, -x+0.8, -y+0.9'
   'z+0.4, -x+0.95, -y+0.95'
   '-z+0.6, x+1/4, y+1/4'
   '-z+0.65, -x+0.85, y+0.2'
   'z+0.55, x+0.35, -y+0.8'
   '-z+3/4, x+0.3, -y+0.85'
   'z+0.45, -x+0.9, y+0.35'
   'y+0.3, z+0.4, x+0.3'
   '-y+0.9, -z+0.6, -x+0.9'
   '-y+0.95, z+1/2, -x+0.85'
   'y+1/4, -z+0.7, x+0.35'
   'y+0.2, -z+3/4, -x+0.95'
   '-y+0.8, z+0.45, x+1/4'
   '-y+0.85, -z+0.65, x+0.2'
   'y+0.35, z+0.55, -x+0.8'
   'y+1/4, x+1/4, -z+0.6'
   '-y+0.95, -x+0.95, z+0.4'
   '-y+0.9, -x+0.8, -z+0.7'
   'y+0.3, x+0.2, z+1/2'
   'y+0.35, -x+0.9, z+0.45'
   '-y+0.85, x+0.3, -z+3/4'
   '-y+0.8, x+0.35, z+0.55'
   'y+0.2, -x+0.85, -z+0.65'
   'x+1/4, z+0.45, -y+0.8'
   '-x+0.95, -z+3/4, y+0.2'
   '-x+0.8, z+0.55, y+0.35'
   'x+0.2, -z+0.65, -y+0.85'
   '-x+0.9, -z+0.6, -y+0.9'
   'x+0.3, z+0.4, y+0.3'
   'x+0.35, -z+0.7, y+1/4'
   '-x+0.85, z+1/2, -y+0.95'
   'z+0.45, y+1/4, -x+0.8'
   '-z+3/4, -y+0.95, x+0.2'
   'z+0.55, -y+0.9, x+1/4'
   '-z+0.65, y+0.3, -x+0.95'
   '-z+0.6, y+0.35, x+0.35'
   'z+0.4, -y+0.85, -x+0.85'
   '-z+0.7, -y+0.8, -x+0.9'
   'z+1/2, y+0.2, x+0.3'
   'x+0.3, y+0.3, z+0.4'
   '-x+0.9, -y+0.9, -z+0.6'
   '-x+0.85, -y+0.95, z+1/2'
   'x+0.35, y+1/4, -z+0.7'
   '-x+0.95, y+0.2, -z+3/4'
   'x+1/4, -y+0.8, z+0.45'
   'x+0.2, -y+0.85, -z+0.65'
   '-x+0.8, y+0.35, z+0.55'
   'z+1/2, x+0.3, y+0.2'
   '-z+0.7, -x+0.9, -y+0.8'
   'z+0.4, -x+0.85, -y+0.85'
   '-z+0.6, x+0.35, y+0.35'
   '-z+0.65, -x+0.95, y+0.3'
   'z+0.55, x+1/4, -y+0.9'
   '-z+3/4, x+0.2, -y+0.95'
   'z+0.45, -x+0.8, y+1/4'
   'y+0.3, z+1/2, x+0.2'
   '-y+0.9, -z+0.7, -x+0.8'
   '-y+0.95, z+0.4, -x+0.95'
   'y+1/4, -z+0.6, x+1/4'
   'y+0.2, -z+0.65, -x+0.85'
   '-y+0.8, z+0.55, x+0.35'
   '-y+0.85, -z+3/4, x+0.3'
   'y+0.35, z+0.45, -x+0.9'
   'y+1/4, x+0.35, -z+0.7'
   '-y+0.95, -x+0.85, z+1/2'
   '-y+0.9, -x+0.9, -z+0.6'
   'y+0.3, x+0.3, z+0.4'
   'y+0.35, -x+0.8, z+0.55'
   '-y+0.85, x+0.2, -z+0.65'
   '-y+0.8, x+1/4, z+0.45'
   'y+0.2, -x+0.95, -z+3/4'
   'x+1/4, z+0.55, -y+0.9'
   '-x+0.95, -z+0.65, y+0.3'
   '-x+0.8, z+0.45, y+1/4'
   'x+0.2, -z+3/4, -y+0.95'
   '-x+0.9, -z+0.7, -y+0.8'
   'x+0.3, z+1/2, y+0.2'
   'x+0.35, -z+0.6, y+0.35'
   '-x+0.85, z+0.4, -y+0.85'
   'z+0.45, y+0.35, -x+0.9'
   '-z+3/4, -y+0.85, x+0.3'
   'z+0.55, -y+0.8, x+0.35'
   '-z+0.65, y+0.2, -x+0.85'
   '-z+0.6, y+1/4, x+1/4'
   'z+0.4, -y+0.95, -x+0.95'
   '-z+0.7, -y+0.9, -x+0.8'
   'z+1/2, y+0.3, x+0.2'
   'x+0.2, y+0.2, z+0.6'
   '-x+0.8, -y+0.8, -z+0.4'
   '-x+0.95, -y+0.85, z+0.7'
   'x+1/4, y+0.35, -z+1/2'
   '-x+0.85, y+0.3, -z+0.55'
   'x+0.35, -y+0.9, z+0.65'
   'x+0.3, -y+0.95, -z+0.45'
   '-x+0.9, y+1/4, z+3/4'
   'z+0.6, x+0.2, y+0.2'
   '-z+0.4, -x+0.8, -y+0.8'
   'z+0.7, -x+0.95, -y+0.85'
   '-z+1/2, x+1/4, y+0.35'
   '-z+0.55, -x+0.85, y+0.3'
   'z+0.65, x+0.35, -y+0.9'
   '-z+0.45, x+0.3, -y+0.95'
   'z+3/4, -x+0.9, y+1/4'
   'y+0.2, z+0.6, x+0.2'
   '-y+0.8, -z+0.4, -x+0.8'
   '-y+0.85, z+0.7, -x+0.95'
   'y+0.35, -z+1/2, x+1/4'
   'y+0.3, -z+0.55, -x+0.85'
   '-y+0.9, z+0.65, x+0.35'
   '-y+0.95, -z+0.45, x+0.3'
   'y+1/4, z+3/4, -x+0.9'
   'y+0.35, x+1/4, -z+1/2'
   '-y+0.85, -x+0.95, z+0.7'
   '-y+0.8, -x+0.8, -z+0.4'
   'y+0.2, x+0.2, z+0.6'
   'y+1/4, -x+0.9, z+3/4'
   '-y+0.95, x+0.3, -z+0.45'
   '-y+0.9, x+0.35, z+0.65'
   'y+0.3, -x+0.85, -z+0.55'
   'x+0.35, z+0.65, -y+0.9'
   '-x+0.85, -z+0.55, y+0.3'
   '-x+0.9, z+3/4, y+1/4'
   'x+0.3, -z+0.45, -y+0.95'
   '-x+0.8, -z+0.4, -y+0.8'
   'x+0.2, z+0.6, y+0.2'
   'x+1/4, -z+1/2, y+0.35'
   '-x+0.95, z+0.7, -y+0.85'
   'z+3/4, y+1/4, -x+0.9'
   '-z+0.45, -y+0.95, x+0.3'
   'z+0.65, -y+0.9, x+0.35'
   '-z+0.55, y+0.3, -x+0.85'
   '-z+1/2, y+0.35, x+1/4'
   'z+0.7, -y+0.85, -x+0.95'
   '-z+0.4, -y+0.8, -x+0.8'
   'z+0.6, y+0.2, x+0.2'
   'x+0.2, y+0.3, z+0.7'
   '-x+0.8, -y+0.9, -z+1/2'
   '-x+0.95, -y+0.95, z+0.6'
   'x+1/4, y+1/4, -z+0.4'
   '-x+0.85, y+0.2, -z+0.45'
   'x+0.35, -y+0.8, z+3/4'
   'x+0.3, -y+0.85, -z+0.55'
   '-x+0.9, y+0.35, z+0.65'
   'z+0.6, x+0.3, y+0.3'
   '-z+0.4, -x+0.9, -y+0.9'
   'z+0.7, -x+0.85, -y+0.95'
   '-z+1/2, x+0.35, y+1/4'
   '-z+0.55, -x+0.95, y+0.2'
   'z+0.65, x+1/4, -y+0.8'
   '-z+0.45, x+0.2, -y+0.85'
   'z+3/4, -x+0.8, y+0.35'
   'y+0.2, z+0.7, x+0.3'
   '-y+0.8, -z+1/2, -x+0.9'
   '-y+0.85, z+0.6, -x+0.85'
   'y+0.35, -z+0.4, x+0.35'
   'y+0.3, -z+0.45, -x+0.95'
   '-y+0.9, z+3/4, x+1/4'
   '-y+0.95, -z+0.55, x+0.2'
   'y+1/4, z+0.65, -x+0.8'
   'y+0.35, x+0.35, -z+0.4'
   '-y+0.85, -x+0.85, z+0.6'
   '-y+0.8, -x+0.9, -z+1/2'
   'y+0.2, x+0.3, z+0.7'
   'y+1/4, -x+0.8, z+0.65'
   '-y+0.95, x+0.2, -z+0.55'
   '-y+0.9, x+1/4, z+3/4'
   'y+0.3, -x+0.95, -z+0.45'
   'x+0.35, z+3/4, -y+0.8'
   '-x+0.85, -z+0.45, y+0.2'
   '-x+0.9, z+0.65, y+0.35'
   'x+0.3, -z+0.55, -y+0.85'
   '-x+0.8, -z+1/2, -y+0.9'
   'x+0.2, z+0.7, y+0.3'
   'x+1/4, -z+0.4, y+1/4'
   '-x+0.95, z+0.6, -y+0.95'
   'z+3/4, y+0.35, -x+0.8'
   '-z+0.45, -y+0.85, x+0.2'
   'z+0.65, -y+0.8, x+1/4'
   '-z+0.55, y+0.2, -x+0.95'
   '-z+1/2, y+1/4, x+0.35'
   'z+0.7, -y+0.95, -x+0.85'
   '-z+0.4, -y+0.9, -x+0.9'
   'z+0.6, y+0.3, x+0.3'
   'x+0.3, y+0.2, z+0.7'
   '-x+0.9, -y+0.8, -z+1/2'
   '-x+0.85, -y+0.85, z+0.6'
   'x+0.35, y+0.35, -z+0.4'
   '-x+0.95, y+0.3, -z+0.45'
   'x+1/4, -y+0.9, z+3/4'
   'x+0.2, -y+0.95, -z+0.55'
   '-x+0.8, y+1/4, z+0.65'
   'z+0.7, x+0.2, y+0.3'
   '-z+1/2, -x+0.8, -y+0.9'
   'z+0.6, -x+0.95, -y+0.95'
   '-z+0.4, x+1/4, y+1/4'
   '-z+0.45, -x+0.85, y+0.2'
   'z+3/4, x+0.35, -y+0.8'
   '-z+0.55, x+0.3, -y+0.85'
   'z+0.65, -x+0.9, y+0.35'
   'y+0.3, z+0.6, x+0.3'
   '-y+0.9, -z+0.4, -x+0.9'
   '-y+0.95, z+0.7, -x+0.85'
   'y+1/4, -z+1/2, x+0.35'
   'y+0.2, -z+0.55, -x+0.95'
   '-y+0.8, z+0.65, x+1/4'
   '-y+0.85, -z+0.45, x+0.2'
   'y+0.35, z+3/4, -x+0.8'
   'y+1/4, x+1/4, -z+0.4'
   '-y+0.95, -x+0.95, z+0.6'
   '-y+0.9, -x+0.8, -z+1/2'
   'y+0.3, x+0.2, z+0.7'
   'y+0.35, -x+0.9, z+0.65'
   '-y+0.85, x+0.3, -z+0.55'
   '-y+0.8, x+0.35, z+3/4'
   'y+0.2, -x+0.85, -z+0.45'
   'x+1/4, z+0.65, -y+0.8'
   '-x+0.95, -z+0.55, y+0.2'
   '-x+0.8, z+3/4, y+0.35'
   'x+0.2, -z+0.45, -y+0.85'
   '-x+0.9, -z+0.4, -y+0.9'
   'x+0.3, z+0.6, y+0.3'
   'x+0.35, -z+1/2, y+1/4'
   '-x+0.85, z+0.7, -y+0.95'
   'z+0.65, y+1/4, -x+0.8'
   '-z+0.55, -y+0.95, x+0.2'
   'z+3/4, -y+0.9, x+1/4'
   '-z+0.45, y+0.3, -x+0.95'
   '-z+0.4, y+0.35, x+0.35'
   'z+0.6, -y+0.85, -x+0.85'
   '-z+1/2, -y+0.8, -x+0.9'
   'z+0.7, y+0.2, x+0.3'
   'x+0.3, y+0.3, z+0.6'
   '-x+0.9, -y+0.9, -z+0.4'
   '-x+0.85, -y+0.95, z+0.7'
   'x+0.35, y+1/4, -z+1/2'
   '-x+0.95, y+0.2, -z+0.55'
   'x+1/4, -y+0.8, z+0.65'
   'x+0.2, -y+0.85, -z+0.45'
   '-x+0.8, y+0.35, z+3/4'
   'z+0.7, x+0.3, y+0.2'
   '-z+1/2, -x+0.9, -y+0.8'
   'z+0.6, -x+0.85, -y+0.85'
   '-z+0.4, x+0.35, y+0.35'
   '-z+0.45, -x+0.95, y+0.3'
   'z+3/4, x+1/4, -y+0.9'
   '-z+0.55, x+0.2, -y+0.95'
   'z+0.65, -x+0.8, y+1/4'
   'y+0.3, z+0.7, x+0.2'
   '-y+0.9, -z+1/2, -x+0.8'
   '-y+0.95, z+0.6, -x+0.95'
   'y+1/4, -z+0.4, x+1/4'
   'y+0.2, -z+0.45, -x+0.85'
   '-y+0.8, z+3/4, x+0.35'
   '-y+0.85, -z+0.55, x+0.3'
   'y+0.35, z+0.65, -x+0.9'
   'y+1/4, x+0.35, -z+1/2'
   '-y+0.95, -x+0.85, z+0.7'
   '-y+0.9, -x+0.9, -z+0.4'
   'y+0.3, x+0.3, z+0.6'
   'y+0.35, -x+0.8, z+3/4'
   '-y+0.85, x+0.2, -z+0.45'
   '-y+0.8, x+1/4, z+0.65'
   'y+0.2, -x+0.95, -z+0.55'
   'x+1/4, z+3/4, -y+0.9'
   '-x+0.95, -z+0.45, y+0.3'
   '-x+0.8, z+0.65, y+1/4'
   'x+0.2, -z+0.55, -y+0.95'
   '-x+0.9, -z+1/2, -y+0.8'
   'x+0.3, z+0.7, y+0.2'
   'x+0.35, -z+0.4, y+0.35'
   '-x+0.85, z+0.6, -y+0.85'
   'z+0.65, y+0.35, -x+0.9'
   '-z+0.55, -y+0.85, x+0.3'
   'z+3/4, -y+0.8, x+0.35'
   '-z+0.45, y+0.2, -x+0.85'
   '-z+0.4, y+1/4, x+1/4'
   'z+0.6, -y+0.95, -x+0.95'
   '-z+1/2, -y+0.9, -x+0.8'
   'z+0.7, y+0.3, x+0.2'
   'x+0.2, y+0.2, z+0.8'
   '-x+0.8, -y+0.8, -z+0.2'
   '-x+0.95, -y+0.85, z+0.9'
   'x+1/4, y+0.35, -z+0.3'
   '-x+0.85, y+0.3, -z+0.35'
   'x+0.35, -y+0.9, z+0.85'
   'x+0.3, -y+0.95, -z+1/4'
   '-x+0.9, y+1/4, z+0.95'
   'z+0.8, x+0.2, y+0.2'
   '-z+0.2, -x+0.8, -y+0.8'
   'z+0.9, -x+0.95, -y+0.85'
   '-z+0.3, x+1/4, y+0.35'
   '-z+0.35, -x+0.85, y+0.3'
   'z+0.85, x+0.35, -y+0.9'
   '-z+1/4, x+0.3, -y+0.95'
   'z+0.95, -x+0.9, y+1/4'
   'y+0.2, z+0.8, x+0.2'
   '-y+0.8, -z+0.2, -x+0.8'
   '-y+0.85, z+0.9, -x+0.95'
   'y+0.35, -z+0.3, x+1/4'
   'y+0.3, -z+0.35, -x+0.85'
   '-y+0.9, z+0.85, x+0.35'
   '-y+0.95, -z+1/4, x+0.3'
   'y+1/4, z+0.95, -x+0.9'
   'y+0.35, x+1/4, -z+0.3'
   '-y+0.85, -x+0.95, z+0.9'
   '-y+0.8, -x+0.8, -z+0.2'
   'y+0.2, x+0.2, z+0.8'
   'y+1/4, -x+0.9, z+0.95'
   '-y+0.95, x+0.3, -z+1/4'
   '-y+0.9, x+0.35, z+0.85'
   'y+0.3, -x+0.85, -z+0.35'
   'x+0.35, z+0.85, -y+0.9'
   '-x+0.85, -z+0.35, y+0.3'
   '-x+0.9, z+0.95, y+1/4'
   'x+0.3, -z+1/4, -y+0.95'
   '-x+0.8, -z+0.2, -y+0.8'
   'x+0.2, z+0.8, y+0.2'
   'x+1/4, -z+0.3, y+0.35'
   '-x+0.95, z+0.9, -y+0.85'
   'z+0.95, y+1/4, -x+0.9'
   '-z+1/4, -y+0.95, x+0.3'
   'z+0.85, -y+0.9, x+0.35'
   '-z+0.35, y+0.3, -x+0.85'
   '-z+0.3, y+0.35, x+1/4'
   'z+0.9, -y+0.85, -x+0.95'
   '-z+0.2, -y+0.8, -x+0.8'
   'z+0.8, y+0.2, x+0.2'
   'x+0.2, y+0.3, z+0.9'
   '-x+0.8, -y+0.9, -z+0.3'
   '-x+0.95, -y+0.95, z+0.8'
   'x+1/4, y+1/4, -z+0.2'
   '-x+0.85, y+0.2, -z+1/4'
   'x+0.35, -y+0.8, z+0.95'
   'x+0.3, -y+0.85, -z+0.35'
   '-x+0.9, y+0.35, z+0.85'
   'z+0.8, x+0.3, y+0.3'
   '-z+0.2, -x+0.9, -y+0.9'
   'z+0.9, -x+0.85, -y+0.95'
   '-z+0.3, x+0.35, y+1/4'
   '-z+0.35, -x+0.95, y+0.2'
   'z+0.85, x+1/4, -y+0.8'
   '-z+1/4, x+0.2, -y+0.85'
   'z+0.95, -x+0.8, y+0.35'
   'y+0.2, z+0.9, x+0.3'
   '-y+0.8, -z+0.3, -x+0.9'
   '-y+0.85, z+0.8, -x+0.85'
   'y+0.35, -z+0.2, x+0.35'
   'y+0.3, -z+1/4, -x+0.95'
   '-y+0.9, z+0.95, x+1/4'
   '-y+0.95, -z+0.35, x+0.2'
   'y+1/4, z+0.85, -x+0.8'
   'y+0.35, x+0.35, -z+0.2'
   '-y+0.85, -x+0.85, z+0.8'
   '-y+0.8, -x+0.9, -z+0.3'
   'y+0.2, x+0.3, z+0.9'
   'y+1/4, -x+0.8, z+0.85'
   '-y+0.95, x+0.2, -z+0.35'
   '-y+0.9, x+1/4, z+0.95'
   'y+0.3, -x+0.95, -z+1/4'
   'x+0.35, z+0.95, -y+0.8'
   '-x+0.85, -z+1/4, y+0.2'
   '-x+0.9, z+0.85, y+0.35'
   'x+0.3, -z+0.35, -y+0.85'
   '-x+0.8, -z+0.3, -y+0.9'
   'x+0.2, z+0.9, y+0.3'
   'x+1/4, -z+0.2, y+1/4'
   '-x+0.95, z+0.8, -y+0.95'
   'z+0.95, y+0.35, -x+0.8'
   '-z+1/4, -y+0.85, x+0.2'
   'z+0.85, -y+0.8, x+1/4'
   '-z+0.35, y+0.2, -x+0.95'
   '-z+0.3, y+1/4, x+0.35'
   'z+0.9, -y+0.95, -x+0.85'
   '-z+0.2, -y+0.9, -x+0.9'
   'z+0.8, y+0.3, x+0.3'
   'x+0.3, y+0.2, z+0.9'
   '-x+0.9, -y+0.8, -z+0.3'
   '-x+0.85, -y+0.85, z+0.8'
   'x+0.35, y+0.35, -z+0.2'
   '-x+0.95, y+0.3, -z+1/4'
   'x+1/4, -y+0.9, z+0.95'
   'x+0.2, -y+0.95, -z+0.35'
   '-x+0.8, y+1/4, z+0.85'
   'z+0.9, x+0.2, y+0.3'
   '-z+0.3, -x+0.8, -y+0.9'
   'z+0.8, -x+0.95, -y+0.95'
   '-z+0.2, x+1/4, y+1/4'
   '-z+1/4, -x+0.85, y+0.2'
   'z+0.95, x+0.35, -y+0.8'
   '-z+0.35, x+0.3, -y+0.85'
   'z+0.85, -x+0.9, y+0.35'
   'y+0.3, z+0.8, x+0.3'
   '-y+0.9, -z+0.2, -x+0.9'
   '-y+0.95, z+0.9, -x+0.85'
   'y+1/4, -z+0.3, x+0.35'
   'y+0.2, -z+0.35, -x+0.95'
   '-y+0.8, z+0.85, x+1/4'
   '-y+0.85, -z+1/4, x+0.2'
   'y+0.35, z+0.95, -x+0.8'
   'y+1/4, x+1/4, -z+0.2'
   '-y+0.95, -x+0.95, z+0.8'
   '-y+0.9, -x+0.8, -z+0.3'
   'y+0.3, x+0.2, z+0.9'
   'y+0.35, -x+0.9, z+0.85'
   '-y+0.85, x+0.3, -z+0.35'
   '-y+0.8, x+0.35, z+0.95'
   'y+0.2, -x+0.85, -z+1/4'
   'x+1/4, z+0.85, -y+0.8'
   '-x+0.95, -z+0.35, y+0.2'
   '-x+0.8, z+0.95, y+0.35'
   'x+0.2, -z+1/4, -y+0.85'
   '-x+0.9, -z+0.2, -y+0.9'
   'x+0.3, z+0.8, y+0.3'
   'x+0.35, -z+0.3, y+1/4'
   '-x+0.85, z+0.9, -y+0.95'
   'z+0.85, y+1/4, -x+0.8'
   '-z+0.35, -y+0.95, x+0.2'
   'z+0.95, -y+0.9, x+1/4'
   '-z+1/4, y+0.3, -x+0.95'
   '-z+0.2, y+0.35, x+0.35'
   'z+0.8, -y+0.85, -x+0.85'
   '-z+0.3, -y+0.8, -x+0.9'
   'z+0.9, y+0.2, x+0.3'
   'x+0.3, y+0.3, z+0.8'
   '-x+0.9, -y+0.9, -z+0.2'
   '-x+0.85, -y+0.95, z+0.9'
   'x+0.35, y+1/4, -z+0.3'
   '-x+0.95, y+0.2, -z+0.35'
   'x+1/4, -y+0.8, z+0.85'
   'x+0.2, -y+0.85, -z+1/4'
   '-x+0.8, y+0.35, z+0.95'
   'z+0.9, x+0.3, y+0.2'
   '-z+0.3, -x+0.9, -y+0.8'
   'z+0.8, -x+0.85, -y+0.85'
   '-z+0.2, x+0.35, y+0.35'
   '-z+1/4, -x+0.95, y+0.3'
   'z+0.95, x+1/4, -y+0.9'
   '-z+0.35, x+0.2, -y+0.95'
   'z+0.85, -x+0.8, y+1/4'
   'y+0.3, z+0.9, x+0.2'
   '-y+0.9, -z+0.3, -x+0.8'
   '-y+0.95, z+0.8, -x+0.95'
   'y+1/4, -z+0.2, x+1/4'
   'y+0.2, -z+1/4, -x+0.85'
   '-y+0.8, z+0.95, x+0.35'
   '-y+0.85, -z+0.35, x+0.3'
   'y+0.35, z+0.85, -x+0.9'
   'y+1/4, x+0.35, -z+0.3'
   '-y+0.95, -x+0.85, z+0.9'
   '-y+0.9, -x+0.9, -z+0.2'
   'y+0.3, x+0.3, z+0.8'
   'y+0.35, -x+0.8, z+0.95'
   '-y+0.85, x+0.2, -z+1/4'
   '-y+0.8, x+1/4, z+0.85'
   'y+0.2, -x+0.95, -z+0.35'
   'x+1/4, z+0.95, -y+0.9'
   '-x+0.95, -z+1/4, y+0.3'
   '-x+0.8, z+0.85, y+1/4'
   'x+0.2, -z+0.35, -y+0.95'
   '-x+0.9, -z+0.3, -y+0.8'
   'x+0.3, z+0.9, y+0.2'
   'x+0.35, -z+0.2, y+0.35'
   '-x+0.85, z+0.8, -y+0.85'
   'z+0.85, y+0.35, -x+0.9'
   '-z+0.35, -y+0.85, x+0.3'
   'z+0.95, -y+0.8, x+0.35'
   '-z+1/4, y+0.2, -x+0.85'
   '-z+0.2, y+1/4, x+1/4'
   'z+0.8, -y+0.95, -x+0.95'
   '-z+0.3, -y+0.9, -x+0.8'
   'z+0.9, y+0.3, x+0.2'
   'x+0.2, y+0.4, z'
   '-x+0.8, -y+0.6, -z'
   '-x+0.95, -y+0.65, z+0.1'
   'x+1/4, y+0.55, -z+0.1'
   '-x+0.85, y+1/2, -z+0.15'
   'x+0.35, -y+0.7, z+0.05'
   'x+0.3, -y+3/4, -z+0.05'
   '-x+0.9, y+0.45, z+0.15'
   'z, x+0.2, y+0.4'
   '-z, -x+0.8, -y+0.6'
   'z+0.1, -x+0.95, -y+0.65'
   '-z+0.1, x+1/4, y+0.55'
   '-z+0.15, -x+0.85, y+1/2'
   'z+0.05, x+0.35, -y+0.7'
   '-z+0.05, x+0.3, -y+3/4'
   'z+0.15, -x+0.9, y+0.45'
   'y+0.4, z, x+0.2'
   '-y+0.6, -z, -x+0.8'
   '-y+0.65, z+0.1, -x+0.95'
   'y+0.55, -z+0.1, x+1/4'
   'y+1/2, -z+0.15, -x+0.85'
   '-y+0.7, z+0.05, x+0.35'
   '-y+3/4, -z+0.05, x+0.3'
   'y+0.45, z+0.15, -x+0.9'
   'y+0.55, x+1/4, -z+0.1'
   '-y+0.65, -x+0.95, z+0.1'
   '-y+0.6, -x+0.8, -z'
   'y+0.4, x+0.2, z'
   'y+0.45, -x+0.9, z+0.15'
   '-y+3/4, x+0.3, -z+0.05'
   '-y+0.7, x+0.35, z+0.05'
   'y+1/2, -x+0.85, -z+0.15'
   'x+0.35, z+0.05, -y+0.7'
   '-x+0.85, -z+0.15, y+1/2'
   '-x+0.9, z+0.15, y+0.45'
   'x+0.3, -z+0.05, -y+3/4'
   '-x+0.8, -z, -y+0.6'
   'x+0.2, z, y+0.4'
   'x+1/4, -z+0.1, y+0.55'
   '-x+0.95, z+0.1, -y+0.65'
   'z+0.15, y+0.45, -x+0.9'
   '-z+0.05, -y+3/4, x+0.3'
   'z+0.05, -y+0.7, x+0.35'
   '-z+0.15, y+1/2, -x+0.85'
   '-z+0.1, y+0.55, x+1/4'
   'z+0.1, -y+0.65, -x+0.95'
   '-z, -y+0.6, -x+0.8'
   'z, y+0.4, x+0.2'
   'x+0.2, y+1/2, z+0.1'
   '-x+0.8, -y+0.7, -z+0.1'
   '-x+0.95, -y+3/4, z'
   'x+1/4, y+0.45, -z'
   '-x+0.85, y+0.4, -z+0.05'
   'x+0.35, -y+0.6, z+0.15'
   'x+0.3, -y+0.65, -z+0.15'
   '-x+0.9, y+0.55, z+0.05'
   'z, x+0.3, y+1/2'
   '-z, -x+0.9, -y+0.7'
   'z+0.1, -x+0.85, -y+3/4'
   '-z+0.1, x+0.35, y+0.45'
   '-z+0.15, -x+0.95, y+0.4'
   'z+0.05, x+1/4, -y+0.6'
   '-z+0.05, x+0.2, -y+0.65'
   'z+0.15, -x+0.8, y+0.55'
   'y+0.4, z+0.1, x+0.3'
   '-y+0.6, -z+0.1, -x+0.9'
   '-y+0.65, z, -x+0.85'
   'y+0.55, -z, x+0.35'
   'y+1/2, -z+0.05, -x+0.95'
   '-y+0.7, z+0.15, x+1/4'
   '-y+3/4, -z+0.15, x+0.2'
   'y+0.45, z+0.05, -x+0.8'
   'y+0.55, x+0.35, -z'
   '-y+0.65, -x+0.85, z'
   '-y+0.6, -x+0.9, -z+0.1'
   'y+0.4, x+0.3, z+0.1'
   'y+0.45, -x+0.8, z+0.05'
   '-y+3/4, x+0.2, -z+0.15'
   '-y+0.7, x+1/4, z+0.15'
   'y+1/2, -x+0.95, -z+0.05'
   'x+0.35, z+0.15, -y+0.6'
   '-x+0.85, -z+0.05, y+0.4'
   '-x+0.9, z+0.05, y+0.55'
   'x+0.3, -z+0.15, -y+0.65'
   '-x+0.8, -z+0.1, -y+0.7'
   'x+0.2, z+0.1, y+1/2'
   'x+1/4, -z, y+0.45'
   '-x+0.95, z, -y+3/4'
   'z+0.15, y+0.55, -x+0.8'
   '-z+0.05, -y+0.65, x+0.2'
   'z+0.05, -y+0.6, x+1/4'
   '-z+0.15, y+0.4, -x+0.95'
   '-z+0.1, y+0.45, x+0.35'
   'z+0.1, -y+3/4, -x+0.85'
   '-z, -y+0.7, -x+0.9'
   'z, y+1/2, x+0.3'
   'x+0.3, y+0.4, z+0.1'
   '-x+0.9, -y+0.6, -z+0.1'
   '-x+0.85, -y+0.65, z'
   'x+0.35, y+0.55, -z'
   '-x+0.95, y+1/2, -z+0.05'
   'x+1/4, -y+0.7, z+0.15'
   'x+0.2, -y+3/4, -z+0.15'
   '-x+0.8, y+0.45, z+0.05'
   'z+0.1, x+0.2, y+1/2'
   '-z+0.1, -x+0.8, -y+0.7'
   'z, -x+0.95, -y+3/4'
   '-z, x+1/4, y+0.45'
   '-z+0.05, -x+0.85, y+0.4'
   'z+0.15, x+0.35, -y+0.6'
   '-z+0.15, x+0.3, -y+0.65'
   'z+0.05, -x+0.9, y+0.55'
   'y+1/2, z, x+0.3'
   '-y+0.7, -z, -x+0.9'
   '-y+3/4, z+0.1, -x+0.85'
   'y+0.45, -z+0.1, x+0.35'
   'y+0.4, -z+0.15, -x+0.95'
   '-y+0.6, z+0.05, x+1/4'
   '-y+0.65, -z+0.05, x+0.2'
   'y+0.55, z+0.15, -x+0.8'
   'y+0.45, x+1/4, -z'
   '-y+3/4, -x+0.95, z'
   '-y+0.7, -x+0.8, -z+0.1'
   'y+1/2, x+0.2, z+0.1'
   'y+0.55, -x+0.9, z+0.05'
   '-y+0.65, x+0.3, -z+0.15'
   '-y+0.6, x+0.35, z+0.15'
   'y+0.4, -x+0.85, -z+0.05'
   'x+1/4, z+0.05, -y+0.6'
   '-x+0.95, -z+0.15, y+0.4'
   '-x+0.8, z+0.15, y+0.55'
   'x+0.2, -z+0.05, -y+0.65'
   '-x+0.9, -z, -y+0.7'
   'x+0.3, z, y+1/2'
   'x+0.35, -z+0.1, y+0.45'
   '-x+0.85, z+0.1, -y+3/4'
   'z+0.05, y+0.45, -x+0.8'
   '-z+0.15, -y+3/4, x+0.2'
   'z+0.15, -y+0.7, x+1/4'
   '-z+0.05, y+1/2, -x+0.95'
   '-z, y+0.55, x+0.35'
   'z, -y+0.65, -x+0.85'
   '-z+0.1, -y+0.6, -x+0.9'
   'z+0.1, y+0.4, x+0.3'
   'x+0.3, y+1/2, z'
   '-x+0.9, -y+0.7, -z'
   '-x+0.85, -y+3/4, z+0.1'
   'x+0.35, y+0.45, -z+0.1'
   '-x+0.95, y+0.4, -z+0.15'
   'x+1/4, -y+0.6, z+0.05'
   'x+0.2, -y+0.65, -z+0.05'
   '-x+0.8, y+0.55, z+0.15'
   'z+0.1, x+0.3, y+0.4'
   '-z+0.1, -x+0.9, -y+0.6'
   'z, -x+0.85, -y+0.65'
   '-z, x+0.35, y+0.55'
   '-z+0.05, -x+0.95, y+1/2'
   'z+0.15, x+1/4, -y+0.7'
   '-z+0.15, x+0.2, -y+3/4'
   'z+0.05, -x+0.8, y+0.45'
   'y+1/2, z+0.1, x+0.2'
   '-y+0.7, -z+0.1, -x+0.8'
   '-y+3/4, z, -x+0.95'
   'y+0.45, -z, x+1/4'
   'y+0.4, -z+0.05, -x+0.85'
   '-y+0.6, z+0.15, x+0.35'
   '-y+0.65, -z+0.15, x+0.3'
   'y+0.55, z+0.05, -x+0.9'
   'y+0.45, x+0.35, -z+0.1'
   '-y+3/4, -x+0.85, z+0.1'
   '-y+0.7, -x+0.9, -z'
   'y+1/2, x+0.3, z'
   'y+0.55, -x+0.8, z+0.15'
   '-y+0.65, x+0.2, -z+0.05'
   '-y+0.6, x+1/4, z+0.05'
   'y+0.4, -x+0.95, -z+0.15'
   'x+1/4, z+0.15, -y+0.7'
   '-x+0.95, -z+0.05, y+1/2'
   '-x+0.8, z+0.05, y+0.45'
   'x+0.2, -z+0.15, -y+3/4'
   '-x+0.9, -z+0.1, -y+0.6'
   'x+0.3, z+0.1, y+0.4'
   'x+0.35, -z, y+0.55'
   '-x+0.85, z, -y+0.65'
   'z+0.05, y+0.55, -x+0.9'
   '-z+0.15, -y+0.65, x+0.3'
   'z+0.15, -y+0.6, x+0.35'
   '-z+0.05, y+0.4, -x+0.85'
   '-z, y+0.45, x+1/4'
   'z, -y+3/4, -x+0.95'
   '-z+0.1, -y+0.7, -x+0.8'
   'z+0.1, y+1/2, x+0.2'
   'x+0.2, y+0.4, z+0.2'
   '-x+0.8, -y+0.6, -z+0.8'
   '-x+0.95, -y+0.65, z+0.3'
   'x+1/4, y+0.55, -z+0.9'
   '-x+0.85, y+1/2, -z+0.95'
   'x+0.35, -y+0.7, z+1/4'
   'x+0.3, -y+3/4, -z+0.85'
   '-x+0.9, y+0.45, z+0.35'
   'z+0.2, x+0.2, y+0.4'
   '-z+0.8, -x+0.8, -y+0.6'
   'z+0.3, -x+0.95, -y+0.65'
   '-z+0.9, x+1/4, y+0.55'
   '-z+0.95, -x+0.85, y+1/2'
   'z+1/4, x+0.35, -y+0.7'
   '-z+0.85, x+0.3, -y+3/4'
   'z+0.35, -x+0.9, y+0.45'
   'y+0.4, z+0.2, x+0.2'
   '-y+0.6, -z+0.8, -x+0.8'
   '-y+0.65, z+0.3, -x+0.95'
   'y+0.55, -z+0.9, x+1/4'
   'y+1/2, -z+0.95, -x+0.85'
   '-y+0.7, z+1/4, x+0.35'
   '-y+3/4, -z+0.85, x+0.3'
   'y+0.45, z+0.35, -x+0.9'
   'y+0.55, x+1/4, -z+0.9'
   '-y+0.65, -x+0.95, z+0.3'
   '-y+0.6, -x+0.8, -z+0.8'
   'y+0.4, x+0.2, z+0.2'
   'y+0.45, -x+0.9, z+0.35'
   '-y+3/4, x+0.3, -z+0.85'
   '-y+0.7, x+0.35, z+1/4'
   'y+1/2, -x+0.85, -z+0.95'
   'x+0.35, z+1/4, -y+0.7'
   '-x+0.85, -z+0.95, y+1/2'
   '-x+0.9, z+0.35, y+0.45'
   'x+0.3, -z+0.85, -y+3/4'
   '-x+0.8, -z+0.8, -y+0.6'
   'x+0.2, z+0.2, y+0.4'
   'x+1/4, -z+0.9, y+0.55'
   '-x+0.95, z+0.3, -y+0.65'
   'z+0.35, y+0.45, -x+0.9'
   '-z+0.85, -y+3/4, x+0.3'
   'z+1/4, -y+0.7, x+0.35'
   '-z+0.95, y+1/2, -x+0.85'
   '-z+0.9, y+0.55, x+1/4'
   'z+0.3, -y+0.65, -x+0.95'
   '-z+0.8, -y+0.6, -x+0.8'
   'z+0.2, y+0.4, x+0.2'
   'x+0.2, y+1/2, z+0.3'
   '-x+0.8, -y+0.7, -z+0.9'
   '-x+0.95, -y+3/4, z+0.2'
   'x+1/4, y+0.45, -z+0.8'
   '-x+0.85, y+0.4, -z+0.85'
   'x+0.35, -y+0.6, z+0.35'
   'x+0.3, -y+0.65, -z+0.95'
   '-x+0.9, y+0.55, z+1/4'
   'z+0.2, x+0.3, y+1/2'
   '-z+0.8, -x+0.9, -y+0.7'
   'z+0.3, -x+0.85, -y+3/4'
   '-z+0.9, x+0.35, y+0.45'
   '-z+0.95, -x+0.95, y+0.4'
   'z+1/4, x+1/4, -y+0.6'
   '-z+0.85, x+0.2, -y+0.65'
   'z+0.35, -x+0.8, y+0.55'
   'y+0.4, z+0.3, x+0.3'
   '-y+0.6, -z+0.9, -x+0.9'
   '-y+0.65, z+0.2, -x+0.85'
   'y+0.55, -z+0.8, x+0.35'
   'y+1/2, -z+0.85, -x+0.95'
   '-y+0.7, z+0.35, x+1/4'
   '-y+3/4, -z+0.95, x+0.2'
   'y+0.45, z+1/4, -x+0.8'
   'y+0.55, x+0.35, -z+0.8'
   '-y+0.65, -x+0.85, z+0.2'
   '-y+0.6, -x+0.9, -z+0.9'
   'y+0.4, x+0.3, z+0.3'
   'y+0.45, -x+0.8, z+1/4'
   '-y+3/4, x+0.2, -z+0.95'
   '-y+0.7, x+1/4, z+0.35'
   'y+1/2, -x+0.95, -z+0.85'
   'x+0.35, z+0.35, -y+0.6'
   '-x+0.85, -z+0.85, y+0.4'
   '-x+0.9, z+1/4, y+0.55'
   'x+0.3, -z+0.95, -y+0.65'
   '-x+0.8, -z+0.9, -y+0.7'
   'x+0.2, z+0.3, y+1/2'
   'x+1/4, -z+0.8, y+0.45'
   '-x+0.95, z+0.2, -y+3/4'
   'z+0.35, y+0.55, -x+0.8'
   '-z+0.85, -y+0.65, x+0.2'
   'z+1/4, -y+0.6, x+1/4'
   '-z+0.95, y+0.4, -x+0.95'
   '-z+0.9, y+0.45, x+0.35'
   'z+0.3, -y+3/4, -x+0.85'
   '-z+0.8, -y+0.7, -x+0.9'
   'z+0.2, y+1/2, x+0.3'
   'x+0.3, y+0.4, z+0.3'
   '-x+0.9, -y+0.6, -z+0.9'
   '-x+0.85, -y+0.65, z+0.2'
   'x+0.35, y+0.55, -z+0.8'
   '-x+0.95, y+1/2, -z+0.85'
   'x+1/4, -y+0.7, z+0.35'
   'x+0.2, -y+3/4, -z+0.95'
   '-x+0.8, y+0.45, z+1/4'
   'z+0.3, x+0.2, y+1/2'
   '-z+0.9, -x+0.8, -y+0.7'
   'z+0.2, -x+0.95, -y+3/4'
   '-z+0.8, x+1/4, y+0.45'
   '-z+0.85, -x+0.85, y+0.4'
   'z+0.35, x+0.35, -y+0.6'
   '-z+0.95, x+0.3, -y+0.65'
   'z+1/4, -x+0.9, y+0.55'
   'y+1/2, z+0.2, x+0.3'
   '-y+0.7, -z+0.8, -x+0.9'
   '-y+3/4, z+0.3, -x+0.85'
   'y+0.45, -z+0.9, x+0.35'
   'y+0.4, -z+0.95, -x+0.95'
   '-y+0.6, z+1/4, x+1/4'
   '-y+0.65, -z+0.85, x+0.2'
   'y+0.55, z+0.35, -x+0.8'
   'y+0.45, x+1/4, -z+0.8'
   '-y+3/4, -x+0.95, z+0.2'
   '-y+0.7, -x+0.8, -z+0.9'
   'y+1/2, x+0.2, z+0.3'
   'y+0.55, -x+0.9, z+1/4'
   '-y+0.65, x+0.3, -z+0.95'
   '-y+0.6, x+0.35, z+0.35'
   'y+0.4, -x+0.85, -z+0.85'
   'x+1/4, z+1/4, -y+0.6'
   '-x+0.95, -z+0.95, y+0.4'
   '-x+0.8, z+0.35, y+0.55'
   'x+0.2, -z+0.85, -y+0.65'
   '-x+0.9, -z+0.8, -y+0.7'
   'x+0.3, z+0.2, y+1/2'
   'x+0.35, -z+0.9, y+0.45'
   '-x+0.85, z+0.3, -y+3/4'
   'z+1/4, y+0.45, -x+0.8'
   '-z+0.95, -y+3/4, x+0.2'
   'z+0.35, -y+0.7, x+1/4'
   '-z+0.85, y+1/2, -x+0.95'
   '-z+0.8, y+0.55, x+0.35'
   'z+0.2, -y+0.65, -x+0.85'
   '-z+0.9, -y+0.6, -x+0.9'
   'z+0.3, y+0.4, x+0.3'
   'x+0.3, y+1/2, z+0.2'
   '-x+0.9, -y+0.7, -z+0.8'
   '-x+0.85, -y+3/4, z+0.3'
   'x+0.35, y+0.45, -z+0.9'
   '-x+0.95, y+0.4, -z+0.95'
   'x+1/4, -y+0.6, z+1/4'
   'x+0.2, -y+0.65, -z+0.85'
   '-x+0.8, y+0.55, z+0.35'
   'z+0.3, x+0.3, y+0.4'
   '-z+0.9, -x+0.9, -y+0.6'
   'z+0.2, -x+0.85, -y+0.65'
   '-z+0.8, x+0.35, y+0.55'
   '-z+0.85, -x+0.95, y+1/2'
   'z+0.35, x+1/4, -y+0.7'
   '-z+0.95, x+0.2, -y+3/4'
   'z+1/4, -x+0.8, y+0.45'
   'y+1/2, z+0.3, x+0.2'
   '-y+0.7, -z+0.9, -x+0.8'
   '-y+3/4, z+0.2, -x+0.95'
   'y+0.45, -z+0.8, x+1/4'
   'y+0.4, -z+0.85, -x+0.85'
   '-y+0.6, z+0.35, x+0.35'
   '-y+0.65, -z+0.95, x+0.3'
   'y+0.55, z+1/4, -x+0.9'
   'y+0.45, x+0.35, -z+0.9'
   '-y+3/4, -x+0.85, z+0.3'
   '-y+0.7, -x+0.9, -z+0.8'
   'y+1/2, x+0.3, z+0.2'
   'y+0.55, -x+0.8, z+0.35'
   '-y+0.65, x+0.2, -z+0.85'
   '-y+0.6, x+1/4, z+1/4'
   'y+0.4, -x+0.95, -z+0.95'
   'x+1/4, z+0.35, -y+0.7'
   '-x+0.95, -z+0.85, y+1/2'
   '-x+0.8, z+1/4, y+0.45'
   'x+0.2, -z+0.95, -y+3/4'
   '-x+0.9, -z+0.9, -y+0.6'
   'x+0.3, z+0.3, y+0.4'
   'x+0.35, -z+0.8, y+0.55'
   '-x+0.85, z+0.2, -y+0.65'
   'z+1/4, y+0.55, -x+0.9'
   '-z+0.95, -y+0.65, x+0.3'
   'z+0.35, -y+0.6, x+0.35'
   '-z+0.85, y+0.4, -x+0.85'
   '-z+0.8, y+0.45, x+1/4'
   'z+0.2, -y+3/4, -x+0.95'
   '-z+0.9, -y+0.7, -x+0.8'
   'z+0.3, y+1/2, x+0.2'
   'x+0.2, y+0.4, z+0.4'
   '-x+0.8, -y+0.6, -z+0.6'
   '-x+0.95, -y+0.65, z+1/2'
   'x+1/4, y+0.55, -z+0.7'
   '-x+0.85, y+1/2, -z+3/4'
   'x+0.35, -y+0.7, z+0.45'
   'x+0.3, -y+3/4, -z+0.65'
   '-x+0.9, y+0.45, z+0.55'
   'z+0.4, x+0.2, y+0.4'
   '-z+0.6, -x+0.8, -y+0.6'
   'z+1/2, -x+0.95, -y+0.65'
   '-z+0.7, x+1/4, y+0.55'
   '-z+3/4, -x+0.85, y+1/2'
   'z+0.45, x+0.35, -y+0.7'
   '-z+0.65, x+0.3, -y+3/4'
   'z+0.55, -x+0.9, y+0.45'
   'y+0.4, z+0.4, x+0.2'
   '-y+0.6, -z+0.6, -x+0.8'
   '-y+0.65, z+1/2, -x+0.95'
   'y+0.55, -z+0.7, x+1/4'
   'y+1/2, -z+3/4, -x+0.85'
   '-y+0.7, z+0.45, x+0.35'
   '-y+3/4, -z+0.65, x+0.3'
   'y+0.45, z+0.55, -x+0.9'
   'y+0.55, x+1/4, -z+0.7'
   '-y+0.65, -x+0.95, z+1/2'
   '-y+0.6, -x+0.8, -z+0.6'
   'y+0.4, x+0.2, z+0.4'
   'y+0.45, -x+0.9, z+0.55'
   '-y+3/4, x+0.3, -z+0.65'
   '-y+0.7, x+0.35, z+0.45'
   'y+1/2, -x+0.85, -z+3/4'
   'x+0.35, z+0.45, -y+0.7'
   '-x+0.85, -z+3/4, y+1/2'
   '-x+0.9, z+0.55, y+0.45'
   'x+0.3, -z+0.65, -y+3/4'
   '-x+0.8, -z+0.6, -y+0.6'
   'x+0.2, z+0.4, y+0.4'
   'x+1/4, -z+0.7, y+0.55'
   '-x+0.95, z+1/2, -y+0.65'
   'z+0.55, y+0.45, -x+0.9'
   '-z+0.65, -y+3/4, x+0.3'
   'z+0.45, -y+0.7, x+0.35'
   '-z+3/4, y+1/2, -x+0.85'
   '-z+0.7, y+0.55, x+1/4'
   'z+1/2, -y+0.65, -x+0.95'
   '-z+0.6, -y+0.6, -x+0.8'
   'z+0.4, y+0.4, x+0.2'
   'x+0.2, y+1/2, z+1/2'
   '-x+0.8, -y+0.7, -z+0.7'
   '-x+0.95, -y+3/4, z+0.4'
   'x+1/4, y+0.45, -z+0.6'
   '-x+0.85, y+0.4, -z+0.65'
   'x+0.35, -y+0.6, z+0.55'
   'x+0.3, -y+0.65, -z+3/4'
   '-x+0.9, y+0.55, z+0.45'
   'z+0.4, x+0.3, y+1/2'
   '-z+0.6, -x+0.9, -y+0.7'
   'z+1/2, -x+0.85, -y+3/4'
   '-z+0.7, x+0.35, y+0.45'
   '-z+3/4, -x+0.95, y+0.4'
   'z+0.45, x+1/4, -y+0.6'
   '-z+0.65, x+0.2, -y+0.65'
   'z+0.55, -x+0.8, y+0.55'
   'y+0.4, z+1/2, x+0.3'
   '-y+0.6, -z+0.7, -x+0.9'
   '-y+0.65, z+0.4, -x+0.85'
   'y+0.55, -z+0.6, x+0.35'
   'y+1/2, -z+0.65, -x+0.95'
   '-y+0.7, z+0.55, x+1/4'
   '-y+3/4, -z+3/4, x+0.2'
   'y+0.45, z+0.45, -x+0.8'
   'y+0.55, x+0.35, -z+0.6'
   '-y+0.65, -x+0.85, z+0.4'
   '-y+0.6, -x+0.9, -z+0.7'
   'y+0.4, x+0.3, z+1/2'
   'y+0.45, -x+0.8, z+0.45'
   '-y+3/4, x+0.2, -z+3/4'
   '-y+0.7, x+1/4, z+0.55'
   'y+1/2, -x+0.95, -z+0.65'
   'x+0.35, z+0.55, -y+0.6'
   '-x+0.85, -z+0.65, y+0.4'
   '-x+0.9, z+0.45, y+0.55'
   'x+0.3, -z+3/4, -y+0.65'
   '-x+0.8, -z+0.7, -y+0.7'
   'x+0.2, z+1/2, y+1/2'
   'x+1/4, -z+0.6, y+0.45'
   '-x+0.95, z+0.4, -y+3/4'
   'z+0.55, y+0.55, -x+0.8'
   '-z+0.65, -y+0.65, x+0.2'
   'z+0.45, -y+0.6, x+1/4'
   '-z+3/4, y+0.4, -x+0.95'
   '-z+0.7, y+0.45, x+0.35'
   'z+1/2, -y+3/4, -x+0.85'
   '-z+0.6, -y+0.7, -x+0.9'
   'z+0.4, y+1/2, x+0.3'
   'x+0.3, y+0.4, z+1/2'
   '-x+0.9, -y+0.6, -z+0.7'
   '-x+0.85, -y+0.65, z+0.4'
   'x+0.35, y+0.55, -z+0.6'
   '-x+0.95, y+1/2, -z+0.65'
   'x+1/4, -y+0.7, z+0.55'
   'x+0.2, -y+3/4, -z+3/4'
   '-x+0.8, y+0.45, z+0.45'
   'z+1/2, x+0.2, y+1/2'
   '-z+0.7, -x+0.8, -y+0.7'
   'z+0.4, -x+0.95, -y+3/4'
   '-z+0.6, x+1/4, y+0.45'
   '-z+0.65, -x+0.85, y+0.4'
   'z+0.55, x+0.35, -y+0.6'
   '-z+3/4, x+0.3, -y+0.65'
   'z+0.45, -x+0.9, y+0.55'
   'y+1/2, z+0.4, x+0.3'
   '-y+0.7, -z+0.6, -x+0.9'
   '-y+3/4, z+1/2, -x+0.85'
   'y+0.45, -z+0.7, x+0.35'
   'y+0.4, -z+3/4, -x+0.95'
   '-y+0.6, z+0.45, x+1/4'
   '-y+0.65, -z+0.65, x+0.2'
   'y+0.55, z+0.55, -x+0.8'
   'y+0.45, x+1/4, -z+0.6'
   '-y+3/4, -x+0.95, z+0.4'
   '-y+0.7, -x+0.8, -z+0.7'
   'y+1/2, x+0.2, z+1/2'
   'y+0.55, -x+0.9, z+0.45'
   '-y+0.65, x+0.3, -z+3/4'
   '-y+0.6, x+0.35, z+0.55'
   'y+0.4, -x+0.85, -z+0.65'
   'x+1/4, z+0.45, -y+0.6'
   '-x+0.95, -z+3/4, y+0.4'
   '-x+0.8, z+0.55, y+0.55'
   'x+0.2, -z+0.65, -y+0.65'
   '-x+0.9, -z+0.6, -y+0.7'
   'x+0.3, z+0.4, y+1/2'
   'x+0.35, -z+0.7, y+0.45'
   '-x+0.85, z+1/2, -y+3/4'
   'z+0.45, y+0.45, -x+0.8'
   '-z+3/4, -y+3/4, x+0.2'
   'z+0.55, -y+0.7, x+1/4'
   '-z+0.65, y+1/2, -x+0.95'
   '-z+0.6, y+0.55, x+0.35'
   'z+0.4, -y+0.65, -x+0.85'
   '-z+0.7, -y+0.6, -x+0.9'
   'z+1/2, y+0.4, x+0.3'
   'x+0.3, y+1/2, z+0.4'
   '-x+0.9, -y+0.7, -z+0.6'
   '-x+0.85, -y+3/4, z+1/2'
   'x+0.35, y+0.45, -z+0.7'
   '-x+0.95, y+0.4, -z+3/4'
   'x+1/4, -y+0.6, z+0.45'
   'x+0.2, -y+0.65, -z+0.65'
   '-x+0.8, y+0.55, z+0.55'
   'z+1/2, x+0.3, y+0.4'
   '-z+0.7, -x+0.9, -y+0.6'
   'z+0.4, -x+0.85, -y+0.65'
   '-z+0.6, x+0.35, y+0.55'
   '-z+0.65, -x+0.95, y+1/2'
   'z+0.55, x+1/4, -y+0.7'
   '-z+3/4, x+0.2, -y+3/4'
   'z+0.45, -x+0.8, y+0.45'
   'y+1/2, z+1/2, x+0.2'
   '-y+0.7, -z+0.7, -x+0.8'
   '-y+3/4, z+0.4, -x+0.95'
   'y+0.45, -z+0.6, x+1/4'
   'y+0.4, -z+0.65, -x+0.85'
   '-y+0.6, z+0.55, x+0.35'
   '-y+0.65, -z+3/4, x+0.3'
   'y+0.55, z+0.45, -x+0.9'
   'y+0.45, x+0.35, -z+0.7'
   '-y+3/4, -x+0.85, z+1/2'
   '-y+0.7, -x+0.9, -z+0.6'
   'y+1/2, x+0.3, z+0.4'
   'y+0.55, -x+0.8, z+0.55'
   '-y+0.65, x+0.2, -z+0.65'
   '-y+0.6, x+1/4, z+0.45'
   'y+0.4, -x+0.95, -z+3/4'
   'x+1/4, z+0.55, -y+0.7'
   '-x+0.95, -z+0.65, y+1/2'
   '-x+0.8, z+0.45, y+0.45'
   'x+0.2, -z+3/4, -y+3/4'
   '-x+0.9, -z+0.7, -y+0.6'
   'x+0.3, z+1/2, y+0.4'
   'x+0.35, -z+0.6, y+0.55'
   '-x+0.85, z+0.4, -y+0.65'
   'z+0.45, y+0.55, -x+0.9'
   '-z+3/4, -y+0.65, x+0.3'
   'z+0.55, -y+0.6, x+0.35'
   '-z+0.65, y+0.4, -x+0.85'
   '-z+0.6, y+0.45, x+1/4'
   'z+0.4, -y+3/4, -x+0.95'
   '-z+0.7, -y+0.7, -x+0.8'
   'z+1/2, y+1/2, x+0.2'
   'x+0.2, y+0.4, z+0.6'
   '-x+0.8, -y+0.6, -z+0.4'
   '-x+0.95, -y+0.65, z+0.7'
   'x+1/4, y+0.55, -z+1/2'
   '-x+0.85, y+1/2, -z+0.55'
   'x+0.35, -y+0.7, z+0.65'
   'x+0.3, -y+3/4, -z+0.45'
   '-x+0.9, y+0.45, z+3/4'
   'z+0.6, x+0.2, y+0.4'
   '-z+0.4, -x+0.8, -y+0.6'
   'z+0.7, -x+0.95, -y+0.65'
   '-z+1/2, x+1/4, y+0.55'
   '-z+0.55, -x+0.85, y+1/2'
   'z+0.65, x+0.35, -y+0.7'
   '-z+0.45, x+0.3, -y+3/4'
   'z+3/4, -x+0.9, y+0.45'
   'y+0.4, z+0.6, x+0.2'
   '-y+0.6, -z+0.4, -x+0.8'
   '-y+0.65, z+0.7, -x+0.95'
   'y+0.55, -z+1/2, x+1/4'
   'y+1/2, -z+0.55, -x+0.85'
   '-y+0.7, z+0.65, x+0.35'
   '-y+3/4, -z+0.45, x+0.3'
   'y+0.45, z+3/4, -x+0.9'
   'y+0.55, x+1/4, -z+1/2'
   '-y+0.65, -x+0.95, z+0.7'
   '-y+0.6, -x+0.8, -z+0.4'
   'y+0.4, x+0.2, z+0.6'
   'y+0.45, -x+0.9, z+3/4'
   '-y+3/4, x+0.3, -z+0.45'
   '-y+0.7, x+0.35, z+0.65'
   'y+1/2, -x+0.85, -z+0.55'
   'x+0.35, z+0.65, -y+0.7'
   '-x+0.85, -z+0.55, y+1/2'
   '-x+0.9, z+3/4, y+0.45'
   'x+0.3, -z+0.45, -y+3/4'
   '-x+0.8, -z+0.4, -y+0.6'
   'x+0.2, z+0.6, y+0.4'
   'x+1/4, -z+1/2, y+0.55'
   '-x+0.95, z+0.7, -y+0.65'
   'z+3/4, y+0.45, -x+0.9'
   '-z+0.45, -y+3/4, x+0.3'
   'z+0.65, -y+0.7, x+0.35'
   '-z+0.55, y+1/2, -x+0.85'
   '-z+1/2, y+0.55, x+1/4'
   'z+0.7, -y+0.65, -x+0.95'
   '-z+0.4, -y+0.6, -x+0.8'
   'z+0.6, y+0.4, x+0.2'
   'x+0.2, y+1/2, z+0.7'
   '-x+0.8, -y+0.7, -z+1/2'
   '-x+0.95, -y+3/4, z+0.6'
   'x+1/4, y+0.45, -z+0.4'
   '-x+0.85, y+0.4, -z+0.45'
   'x+0.35, -y+0.6, z+3/4'
   'x+0.3, -y+0.65, -z+0.55'
   '-x+0.9, y+0.55, z+0.65'
   'z+0.6, x+0.3, y+1/2'
   '-z+0.4, -x+0.9, -y+0.7'
   'z+0.7, -x+0.85, -y+3/4'
   '-z+1/2, x+0.35, y+0.45'
   '-z+0.55, -x+0.95, y+0.4'
   'z+0.65, x+1/4, -y+0.6'
   '-z+0.45, x+0.2, -y+0.65'
   'z+3/4, -x+0.8, y+0.55'
   'y+0.4, z+0.7, x+0.3'
   '-y+0.6, -z+1/2, -x+0.9'
   '-y+0.65, z+0.6, -x+0.85'
   'y+0.55, -z+0.4, x+0.35'
   'y+1/2, -z+0.45, -x+0.95'
   '-y+0.7, z+3/4, x+1/4'
   '-y+3/4, -z+0.55, x+0.2'
   'y+0.45, z+0.65, -x+0.8'
   'y+0.55, x+0.35, -z+0.4'
   '-y+0.65, -x+0.85, z+0.6'
   '-y+0.6, -x+0.9, -z+1/2'
   'y+0.4, x+0.3, z+0.7'
   'y+0.45, -x+0.8, z+0.65'
   '-y+3/4, x+0.2, -z+0.55'
   '-y+0.7, x+1/4, z+3/4'
   'y+1/2, -x+0.95, -z+0.45'
   'x+0.35, z+3/4, -y+0.6'
   '-x+0.85, -z+0.45, y+0.4'
   '-x+0.9, z+0.65, y+0.55'
   'x+0.3, -z+0.55, -y+0.65'
   '-x+0.8, -z+1/2, -y+0.7'
   'x+0.2, z+0.7, y+1/2'
   'x+1/4, -z+0.4, y+0.45'
   '-x+0.95, z+0.6, -y+3/4'
   'z+3/4, y+0.55, -x+0.8'
   '-z+0.45, -y+0.65, x+0.2'
   'z+0.65, -y+0.6, x+1/4'
   '-z+0.55, y+0.4, -x+0.95'
   '-z+1/2, y+0.45, x+0.35'
   'z+0.7, -y+3/4, -x+0.85'
   '-z+0.4, -y+0.7, -x+0.9'
   'z+0.6, y+1/2, x+0.3'
   'x+0.3, y+0.4, z+0.7'
   '-x+0.9, -y+0.6, -z+1/2'
   '-x+0.85, -y+0.65, z+0.6'
   'x+0.35, y+0.55, -z+0.4'
   '-x+0.95, y+1/2, -z+0.45'
   'x+1/4, -y+0.7, z+3/4'
   'x+0.2, -y+3/4, -z+0.55'
   '-x+0.8, y+0.45, z+0.65'
   'z+0.7, x+0.2, y+1/2'
   '-z+1/2, -x+0.8, -y+0.7'
   'z+0.6, -x+0.95, -y+3/4'
   '-z+0.4, x+1/4, y+0.45'
   '-z+0.45, -x+0.85, y+0.4'
   'z+3/4, x+0.35, -y+0.6'
   '-z+0.55, x+0.3, -y+0.65'
   'z+0.65, -x+0.9, y+0.55'
   'y+1/2, z+0.6, x+0.3'
   '-y+0.7, -z+0.4, -x+0.9'
   '-y+3/4, z+0.7, -x+0.85'
   'y+0.45, -z+1/2, x+0.35'
   'y+0.4, -z+0.55, -x+0.95'
   '-y+0.6, z+0.65, x+1/4'
   '-y+0.65, -z+0.45, x+0.2'
   'y+0.55, z+3/4, -x+0.8'
   'y+0.45, x+1/4, -z+0.4'
   '-y+3/4, -x+0.95, z+0.6'
   '-y+0.7, -x+0.8, -z+1/2'
   'y+1/2, x+0.2, z+0.7'
   'y+0.55, -x+0.9, z+0.65'
   '-y+0.65, x+0.3, -z+0.55'
   '-y+0.6, x+0.35, z+3/4'
   'y+0.4, -x+0.85, -z+0.45'
   'x+1/4, z+0.65, -y+0.6'
   '-x+0.95, -z+0.55, y+0.4'
   '-x+0.8, z+3/4, y+0.55'
   'x+0.2, -z+0.45, -y+0.65'
   '-x+0.9, -z+0.4, -y+0.7'
   'x+0.3, z+0.6, y+1/2'
   'x+0.35, -z+1/2, y+0.45'
   '-x+0.85, z+0.7, -y+3/4'
   'z+0.65, y+0.45, -x+0.8'
   '-z+0.55, -y+3/4, x+0.2'
   'z+3/4, -y+0.7, x+1/4'
   '-z+0.45, y+1/2, -x+0.95'
   '-z+0.4, y+0.55, x+0.35'
   'z+0.6, -y+0.65, -x+0.85'
   '-z+1/2, -y+0.6, -x+0.9'
   'z+0.7, y+0.4, x+0.3'
   'x+0.3, y+1/2, z+0.6'
   '-x+0.9, -y+0.7, -z+0.4'
   '-x+0.85, -y+3/4, z+0.7'
   'x+0.35, y+0.45, -z+1/2'
   '-x+0.95, y+0.4, -z+0.55'
   'x+1/4, -y+0.6, z+0.65'
   'x+0.2, -y+0.65, -z+0.45'
   '-x+0.8, y+0.55, z+3/4'
   'z+0.7, x+0.3, y+0.4'
   '-z+1/2, -x+0.9, -y+0.6'
   'z+0.6, -x+0.85, -y+0.65'
   '-z+0.4, x+0.35, y+0.55'
   '-z+0.45, -x+0.95, y+1/2'
   'z+3/4, x+1/4, -y+0.7'
   '-z+0.55, x+0.2, -y+3/4'
   'z+0.65, -x+0.8, y+0.45'
   'y+1/2, z+0.7, x+0.2'
   '-y+0.7, -z+1/2, -x+0.8'
   '-y+3/4, z+0.6, -x+0.95'
   'y+0.45, -z+0.4, x+1/4'
   'y+0.4, -z+0.45, -x+0.85'
   '-y+0.6, z+3/4, x+0.35'
   '-y+0.65, -z+0.55, x+0.3'
   'y+0.55, z+0.65, -x+0.9'
   'y+0.45, x+0.35, -z+1/2'
   '-y+3/4, -x+0.85, z+0.7'
   '-y+0.7, -x+0.9, -z+0.4'
   'y+1/2, x+0.3, z+0.6'
   'y+0.55, -x+0.8, z+3/4'
   '-y+0.65, x+0.2, -z+0.45'
   '-y+0.6, x+1/4, z+0.65'
   'y+0.4, -x+0.95, -z+0.55'
   'x+1/4, z+3/4, -y+0.7'
   '-x+0.95, -z+0.45, y+1/2'
   '-x+0.8, z+0.65, y+0.45'
   'x+0.2, -z+0.55, -y+3/4'
   '-x+0.9, -z+1/2, -y+0.6'
   'x+0.3, z+0.7, y+0.4'
   'x+0.35, -z+0.4, y+0.55'
   '-x+0.85, z+0.6, -y+0.65'
   'z+0.65, y+0.55, -x+0.9'
   '-z+0.55, -y+0.65, x+0.3'
   'z+3/4, -y+0.6, x+0.35'
   '-z+0.45, y+0.4, -x+0.85'
   '-z+0.4, y+0.45, x+1/4'
   'z+0.6, -y+3/4, -x+0.95'
   '-z+1/2, -y+0.7, -x+0.8'
   'z+0.7, y+1/2, x+0.2'
   'x+0.2, y+0.4, z+0.8'
   '-x+0.8, -y+0.6, -z+0.2'
   '-x+0.95, -y+0.65, z+0.9'
   'x+1/4, y+0.55, -z+0.3'
   '-x+0.85, y+1/2, -z+0.35'
   'x+0.35, -y+0.7, z+0.85'
   'x+0.3, -y+3/4, -z+1/4'
   '-x+0.9, y+0.45, z+0.95'
   'z+0.8, x+0.2, y+0.4'
   '-z+0.2, -x+0.8, -y+0.6'
   'z+0.9, -x+0.95, -y+0.65'
   '-z+0.3, x+1/4, y+0.55'
   '-z+0.35, -x+0.85, y+1/2'
   'z+0.85, x+0.35, -y+0.7'
   '-z+1/4, x+0.3, -y+3/4'
   'z+0.95, -x+0.9, y+0.45'
   'y+0.4, z+0.8, x+0.2'
   '-y+0.6, -z+0.2, -x+0.8'
   '-y+0.65, z+0.9, -x+0.95'
   'y+0.55, -z+0.3, x+1/4'
   'y+1/2, -z+0.35, -x+0.85'
   '-y+0.7, z+0.85, x+0.35'
   '-y+3/4, -z+1/4, x+0.3'
   'y+0.45, z+0.95, -x+0.9'
   'y+0.55, x+1/4, -z+0.3'
   '-y+0.65, -x+0.95, z+0.9'
   '-y+0.6, -x+0.8, -z+0.2'
   'y+0.4, x+0.2, z+0.8'
   'y+0.45, -x+0.9, z+0.95'
   '-y+3/4, x+0.3, -z+1/4'
   '-y+0.7, x+0.35, z+0.85'
   'y+1/2, -x+0.85, -z+0.35'
   'x+0.35, z+0.85, -y+0.7'
   '-x+0.85, -z+0.35, y+1/2'
   '-x+0.9, z+0.95, y+0.45'
   'x+0.3, -z+1/4, -y+3/4'
   '-x+0.8, -z+0.2, -y+0.6'
   'x+0.2, z+0.8, y+0.4'
   'x+1/4, -z+0.3, y+0.55'
   '-x+0.95, z+0.9, -y+0.65'
   'z+0.95, y+0.45, -x+0.9'
   '-z+1/4, -y+3/4, x+0.3'
   'z+0.85, -y+0.7, x+0.35'
   '-z+0.35, y+1/2, -x+0.85'
   '-z+0.3, y+0.55, x+1/4'
   'z+0.9, -y+0.65, -x+0.95'
   '-z+0.2, -y+0.6, -x+0.8'
   'z+0.8, y+0.4, x+0.2'
   'x+0.2, y+1/2, z+0.9'
   '-x+0.8, -y+0.7, -z+0.3'
   '-x+0.95, -y+3/4, z+0.8'
   'x+1/4, y+0.45, -z+0.2'
   '-x+0.85, y+0.4, -z+1/4'
   'x+0.35, -y+0.6, z+0.95'
   'x+0.3, -y+0.65, -z+0.35'
   '-x+0.9, y+0.55, z+0.85'
   'z+0.8, x+0.3, y+1/2'
   '-z+0.2, -x+0.9, -y+0.7'
   'z+0.9, -x+0.85, -y+3/4'
   '-z+0.3, x+0.35, y+0.45'
   '-z+0.35, -x+0.95, y+0.4'
   'z+0.85, x+1/4, -y+0.6'
   '-z+1/4, x+0.2, -y+0.65'
   'z+0.95, -x+0.8, y+0.55'
   'y+0.4, z+0.9, x+0.3'
   '-y+0.6, -z+0.3, -x+0.9'
   '-y+0.65, z+0.8, -x+0.85'
   'y+0.55, -z+0.2, x+0.35'
   'y+1/2, -z+1/4, -x+0.95'
   '-y+0.7, z+0.95, x+1/4'
   '-y+3/4, -z+0.35, x+0.2'
   'y+0.45, z+0.85, -x+0.8'
   'y+0.55, x+0.35, -z+0.2'
   '-y+0.65, -x+0.85, z+0.8'
   '-y+0.6, -x+0.9, -z+0.3'
   'y+0.4, x+0.3, z+0.9'
   'y+0.45, -x+0.8, z+0.85'
   '-y+3/4, x+0.2, -z+0.35'
   '-y+0.7, x+1/4, z+0.95'
   'y+1/2, -x+0.95, -z+1/4'
   'x+0.35, z+0.95, -y+0.6'
   '-x+0.85, -z+1/4, y+0.4'
   '-x+0.9, z+0.85, y+0.55'
   'x+0.3, -z+0.35, -y+0.65'
   '-x+0.8, -z+0.3, -y+0.7'
   'x+0.2, z+0.9, y+1/2'
   'x+1/4, -z+0.2, y+0.45'
   '-x+0.95, z+0.8, -y+3/4'
   'z+0.95, y+0.55, -x+0.8'
   '-z+1/4, -y+0.65, x+0.2'
   'z+0.85, -y+0.6, x+1/4'
   '-z+0.35, y+0.4, -x+0.95'
   '-z+0.3, y+0.45, x+0.35'
   'z+0.9, -y+3/4, -x+0.85'
   '-z+0.2, -y+0.7, -x+0.9'
   'z+0.8, y+1/2, x+0.3'
   'x+0.3, y+0.4, z+0.9'
   '-x+0.9, -y+0.6, -z+0.3'
   '-x+0.85, -y+0.65, z+0.8'
   'x+0.35, y+0.55, -z+0.2'
   '-x+0.95, y+1/2, -z+1/4'
   'x+1/4, -y+0.7, z+0.95'
   'x+0.2, -y+3/4, -z+0.35'
   '-x+0.8, y+0.45, z+0.85'
   'z+0.9, x+0.2, y+1/2'
   '-z+0.3, -x+0.8, -y+0.7'
   'z+0.8, -x+0.95, -y+3/4'
   '-z+0.2, x+1/4, y+0.45'
   '-z+1/4, -x+0.85, y+0.4'
   'z+0.95, x+0.35, -y+0.6'
   '-z+0.35, x+0.3, -y+0.65'
   'z+0.85, -x+0.9, y+0.55'
   'y+1/2, z+0.8, x+0.3'
   '-y+0.7, -z+0.2, -x+0.9'
   '-y+3/4, z+0.9, -x+0.85'
   'y+0.45, -z+0.3, x+0.35'
   'y+0.4, -z+0.35, -x+0.95'
   '-y+0.6, z+0.85, x+1/4'
   '-y+0.65, -z+1/4, x+0.2'
   'y+0.55, z+0.95, -x+0.8'
   'y+0.45, x+1/4, -z+0.2'
   '-y+3/4, -x+0.95, z+0.8'
   '-y+0.7, -x+0.8, -z+0.3'
   'y+1/2, x+0.2, z+0.9'
   'y+0.55, -x+0.9, z+0.85'
   '-y+0.65, x+0.3, -z+0.35'
   '-y+0.6, x+0.35, z+0.95'
   'y+0.4, -x+0.85, -z+1/4'
   'x+1/4, z+0.85, -y+0.6'
   '-x+0.95, -z+0.35, y+0.4'
   '-x+0.8, z+0.95, y+0.55'
   'x+0.2, -z+1/4, -y+0.65'
   '-x+0.9, -z+0.2, -y+0.7'
   'x+0.3, z+0.8, y+1/2'
   'x+0.35, -z+0.3, y+0.45'
   '-x+0.85, z+0.9, -y+3/4'
   'z+0.85, y+0.45, -x+0.8'
   '-z+0.35, -y+3/4, x+0.2'
   'z+0.95, -y+0.7, x+1/4'
   '-z+1/4, y+1/2, -x+0.95'
   '-z+0.2, y+0.55, x+0.35'
   'z+0.8, -y+0.65, -x+0.85'
   '-z+0.3, -y+0.6, -x+0.9'
   'z+0.9, y+0.4, x+0.3'
   'x+0.3, y+1/2, z+0.8'
   '-x+0.9, -y+0.7, -z+0.2'
   '-x+0.85, -y+3/4, z+0.9'
   'x+0.35, y+0.45, -z+0.3'
   '-x+0.95, y+0.4, -z+0.35'
   'x+1/4, -y+0.6, z+0.85'
   'x+0.2, -y+0.65, -z+1/4'
   '-x+0.8, y+0.55, z+0.95'
   'z+0.9, x+0.3, y+0.4'
   '-z+0.3, -x+0.9, -y+0.6'
   'z+0.8, -x+0.85, -y+0.65'
   '-z+0.2, x+0.35, y+0.55'
   '-z+1/4, -x+0.95, y+1/2'
   'z+0.95, x+1/4, -y+0.7'
   '-z+0.35, x+0.2, -y+3/4'
   'z+0.85, -x+0.8, y+0.45'
   'y+1/2, z+0.9, x+0.2'
   '-y+0.7, -z+0.3, -x+0.8'
   '-y+3/4, z+0.8, -x+0.95'
   'y+0.45, -z+0.2, x+1/4'
   'y+0.4, -z+1/4, -x+0.85'
   '-y+0.6, z+0.95, x+0.35'
   '-y+0.65, -z+0.35, x+0.3'
   'y+0.55, z+0.85, -x+0.9'
   'y+0.45, x+0.35, -z+0.3'
   '-y+3/4, -x+0.85, z+0.9'
   '-y+0.7, -x+0.9, -z+0.2'
   'y+1/2, x+0.3, z+0.8'
   'y+0.55, -x+0.8, z+0.95'
   '-y+0.65, x+0.2, -z+1/4'
   '-y+0.6, x+1/4, z+0.85'
   'y+0.4, -x+0.95, -z+0.35'
   'x+1/4, z+0.95, -y+0.7'
   '-x+0.95, -z+1/4, y+1/2'
   '-x+0.8, z+0.85, y+0.45'
   'x+0.2, -z+0.35, -y+3/4'
   '-x+0.9, -z+0.3, -y+0.6'
   'x+0.3, z+0.9, y+0.4'
   'x+0.35, -z+0.2, y+0.55'
   '-x+0.85, z+0.8, -y+0.65'
   'z+0.85, y+0.55, -x+0.9'
   '-z+0.35, -y+0.65, x+0.3'
   'z+0.95, -y+0.6, x+0.35'
   '-z+1/4, y+0.4, -x+0.85'
   '-z+0.2, y+0.45, x+1/4'
   'z+0.8, -y+3/4, -x+0.95'
   '-z+0.3, -y+0.7, -x+0.8'
   'z+0.9, y+1/2, x+0.2'
   'x+0.2, y+0.6, z'
   '-x+0.8, -y+0.4, -z'
   '-x+0.95, -y+0.45, z+0.1'
   'x+1/4, y+3/4, -z+0.1'
   '-x+0.85, y+0.7, -z+0.15'
   'x+0.35, -y+1/2, z+0.05'
   'x+0.3, -y+0.55, -z+0.05'
   '-x+0.9, y+0.65, z+0.15'
   'z, x+0.2, y+0.6'
   '-z, -x+0.8, -y+0.4'
   'z+0.1, -x+0.95, -y+0.45'
   '-z+0.1, x+1/4, y+3/4'
   '-z+0.15, -x+0.85, y+0.7'
   'z+0.05, x+0.35, -y+1/2'
   '-z+0.05, x+0.3, -y+0.55'
   'z+0.15, -x+0.9, y+0.65'
   'y+0.6, z, x+0.2'
   '-y+0.4, -z, -x+0.8'
   '-y+0.45, z+0.1, -x+0.95'
   'y+3/4, -z+0.1, x+1/4'
   'y+0.7, -z+0.15, -x+0.85'
   '-y+1/2, z+0.05, x+0.35'
   '-y+0.55, -z+0.05, x+0.3'
   'y+0.65, z+0.15, -x+0.9'
   'y+3/4, x+1/4, -z+0.1'
   '-y+0.45, -x+0.95, z+0.1'
   '-y+0.4, -x+0.8, -z'
   'y+0.6, x+0.2, z'
   'y+0.65, -x+0.9, z+0.15'
   '-y+0.55, x+0.3, -z+0.05'
   '-y+1/2, x+0.35, z+0.05'
   'y+0.7, -x+0.85, -z+0.15'
   'x+0.35, z+0.05, -y+1/2'
   '-x+0.85, -z+0.15, y+0.7'
   '-x+0.9, z+0.15, y+0.65'
   'x+0.3, -z+0.05, -y+0.55'
   '-x+0.8, -z, -y+0.4'
   'x+0.2, z, y+0.6'
   'x+1/4, -z+0.1, y+3/4'
   '-x+0.95, z+0.1, -y+0.45'
   'z+0.15, y+0.65, -x+0.9'
   '-z+0.05, -y+0.55, x+0.3'
   'z+0.05, -y+1/2, x+0.35'
   '-z+0.15, y+0.7, -x+0.85'
   '-z+0.1, y+3/4, x+1/4'
   'z+0.1, -y+0.45, -x+0.95'
   '-z, -y+0.4, -x+0.8'
   'z, y+0.6, x+0.2'
   'x+0.2, y+0.7, z+0.1'
   '-x+0.8, -y+1/2, -z+0.1'
   '-x+0.95, -y+0.55, z'
   'x+1/4, y+0.65, -z'
   '-x+0.85, y+0.6, -z+0.05'
   'x+0.35, -y+0.4, z+0.15'
   'x+0.3, -y+0.45, -z+0.15'
   '-x+0.9, y+3/4, z+0.05'
   'z, x+0.3, y+0.7'
   '-z, -x+0.9, -y+1/2'
   'z+0.1, -x+0.85, -y+0.55'
   '-z+0.1, x+0.35, y+0.65'
   '-z+0.15, -x+0.95, y+0.6'
   'z+0.05, x+1/4, -y+0.4'
   '-z+0.05, x+0.2, -y+0.45'
   'z+0.15, -x+0.8, y+3/4'
   'y+0.6, z+0.1, x+0.3'
   '-y+0.4, -z+0.1, -x+0.9'
   '-y+0.45, z, -x+0.85'
   'y+3/4, -z, x+0.35'
   'y+0.7, -z+0.05, -x+0.95'
   '-y+1/2, z+0.15, x+1/4'
   '-y+0.55, -z+0.15, x+0.2'
   'y+0.65, z+0.05, -x+0.8'
   'y+3/4, x+0.35, -z'
   '-y+0.45, -x+0.85, z'
   '-y+0.4, -x+0.9, -z+0.1'
   'y+0.6, x+0.3, z+0.1'
   'y+0.65, -x+0.8, z+0.05'
   '-y+0.55, x+0.2, -z+0.15'
   '-y+1/2, x+1/4, z+0.15'
   'y+0.7, -x+0.95, -z+0.05'
   'x+0.35, z+0.15, -y+0.4'
   '-x+0.85, -z+0.05, y+0.6'
   '-x+0.9, z+0.05, y+3/4'
   'x+0.3, -z+0.15, -y+0.45'
   '-x+0.8, -z+0.1, -y+1/2'
   'x+0.2, z+0.1, y+0.7'
   'x+1/4, -z, y+0.65'
   '-x+0.95, z, -y+0.55'
   'z+0.15, y+3/4, -x+0.8'
   '-z+0.05, -y+0.45, x+0.2'
   'z+0.05, -y+0.4, x+1/4'
   '-z+0.15, y+0.6, -x+0.95'
   '-z+0.1, y+0.65, x+0.35'
   'z+0.1, -y+0.55, -x+0.85'
   '-z, -y+1/2, -x+0.9'
   'z, y+0.7, x+0.3'
   'x+0.3, y+0.6, z+0.1'
   '-x+0.9, -y+0.4, -z+0.1'
   '-x+0.85, -y+0.45, z'
   'x+0.35, y+3/4, -z'
   '-x+0.95, y+0.7, -z+0.05'
   'x+1/4, -y+1/2, z+0.15'
   'x+0.2, -y+0.55, -z+0.15'
   '-x+0.8, y+0.65, z+0.05'
   'z+0.1, x+0.2, y+0.7'
   '-z+0.1, -x+0.8, -y+1/2'
   'z, -x+0.95, -y+0.55'
   '-z, x+1/4, y+0.65'
   '-z+0.05, -x+0.85, y+0.6'
   'z+0.15, x+0.35, -y+0.4'
   '-z+0.15, x+0.3, -y+0.45'
   'z+0.05, -x+0.9, y+3/4'
   'y+0.7, z, x+0.3'
   '-y+1/2, -z, -x+0.9'
   '-y+0.55, z+0.1, -x+0.85'
   'y+0.65, -z+0.1, x+0.35'
   'y+0.6, -z+0.15, -x+0.95'
   '-y+0.4, z+0.05, x+1/4'
   '-y+0.45, -z+0.05, x+0.2'
   'y+3/4, z+0.15, -x+0.8'
   'y+0.65, x+1/4, -z'
   '-y+0.55, -x+0.95, z'
   '-y+1/2, -x+0.8, -z+0.1'
   'y+0.7, x+0.2, z+0.1'
   'y+3/4, -x+0.9, z+0.05'
   '-y+0.45, x+0.3, -z+0.15'
   '-y+0.4, x+0.35, z+0.15'
   'y+0.6, -x+0.85, -z+0.05'
   'x+1/4, z+0.05, -y+0.4'
   '-x+0.95, -z+0.15, y+0.6'
   '-x+0.8, z+0.15, y+3/4'
   'x+0.2, -z+0.05, -y+0.45'
   '-x+0.9, -z, -y+1/2'
   'x+0.3, z, y+0.7'
   'x+0.35, -z+0.1, y+0.65'
   '-x+0.85, z+0.1, -y+0.55'
   'z+0.05, y+0.65, -x+0.8'
   '-z+0.15, -y+0.55, x+0.2'
   'z+0.15, -y+1/2, x+1/4'
   '-z+0.05, y+0.7, -x+0.95'
   '-z, y+3/4, x+0.35'
   'z, -y+0.45, -x+0.85'
   '-z+0.1, -y+0.4, -x+0.9'
   'z+0.1, y+0.6, x+0.3'
   'x+0.3, y+0.7, z'
   '-x+0.9, -y+1/2, -z'
   '-x+0.85, -y+0.55, z+0.1'
   'x+0.35, y+0.65, -z+0.1'
   '-x+0.95, y+0.6, -z+0.15'
   'x+1/4, -y+0.4, z+0.05'
   'x+0.2, -y+0.45, -z+0.05'
   '-x+0.8, y+3/4, z+0.15'
   'z+0.1, x+0.3, y+0.6'
   '-z+0.1, -x+0.9, -y+0.4'
   'z, -x+0.85, -y+0.45'
   '-z, x+0.35, y+3/4'
   '-z+0.05, -x+0.95, y+0.7'
   'z+0.15, x+1/4, -y+1/2'
   '-z+0.15, x+0.2, -y+0.55'
   'z+0.05, -x+0.8, y+0.65'
   'y+0.7, z+0.1, x+0.2'
   '-y+1/2, -z+0.1, -x+0.8'
   '-y+0.55, z, -x+0.95'
   'y+0.65, -z, x+1/4'
   'y+0.6, -z+0.05, -x+0.85'
   '-y+0.4, z+0.15, x+0.35'
   '-y+0.45, -z+0.15, x+0.3'
   'y+3/4, z+0.05, -x+0.9'
   'y+0.65, x+0.35, -z+0.1'
   '-y+0.55, -x+0.85, z+0.1'
   '-y+1/2, -x+0.9, -z'
   'y+0.7, x+0.3, z'
   'y+3/4, -x+0.8, z+0.15'
   '-y+0.45, x+0.2, -z+0.05'
   '-y+0.4, x+1/4, z+0.05'
   'y+0.6, -x+0.95, -z+0.15'
   'x+1/4, z+0.15, -y+1/2'
   '-x+0.95, -z+0.05, y+0.7'
   '-x+0.8, z+0.05, y+0.65'
   'x+0.2, -z+0.15, -y+0.55'
   '-x+0.9, -z+0.1, -y+0.4'
   'x+0.3, z+0.1, y+0.6'
   'x+0.35, -z, y+3/4'
   '-x+0.85, z, -y+0.45'
   'z+0.05, y+3/4, -x+0.9'
   '-z+0.15, -y+0.45, x+0.3'
   'z+0.15, -y+0.4, x+0.35'
   '-z+0.05, y+0.6, -x+0.85'
   '-z, y+0.65, x+1/4'
   'z, -y+0.55, -x+0.95'
   '-z+0.1, -y+1/2, -x+0.8'
   'z+0.1, y+0.7, x+0.2'
   'x+0.2, y+0.6, z+0.2'
   '-x+0.8, -y+0.4, -z+0.8'
   '-x+0.95, -y+0.45, z+0.3'
   'x+1/4, y+3/4, -z+0.9'
   '-x+0.85, y+0.7, -z+0.95'
   'x+0.35, -y+1/2, z+1/4'
   'x+0.3, -y+0.55, -z+0.85'
   '-x+0.9, y+0.65, z+0.35'
   'z+0.2, x+0.2, y+0.6'
   '-z+0.8, -x+0.8, -y+0.4'
   'z+0.3, -x+0.95, -y+0.45'
   '-z+0.9, x+1/4, y+3/4'
   '-z+0.95, -x+0.85, y+0.7'
   'z+1/4, x+0.35, -y+1/2'
   '-z+0.85, x+0.3, -y+0.55'
   'z+0.35, -x+0.9, y+0.65'
   'y+0.6, z+0.2, x+0.2'
   '-y+0.4, -z+0.8, -x+0.8'
   '-y+0.45, z+0.3, -x+0.95'
   'y+3/4, -z+0.9, x+1/4'
   'y+0.7, -z+0.95, -x+0.85'
   '-y+1/2, z+1/4, x+0.35'
   '-y+0.55, -z+0.85, x+0.3'
   'y+0.65, z+0.35, -x+0.9'
   'y+3/4, x+1/4, -z+0.9'
   '-y+0.45, -x+0.95, z+0.3'
   '-y+0.4, -x+0.8, -z+0.8'
   'y+0.6, x+0.2, z+0.2'
   'y+0.65, -x+0.9, z+0.35'
   '-y+0.55, x+0.3, -z+0.85'
   '-y+1/2, x+0.35, z+1/4'
   'y+0.7, -x+0.85, -z+0.95'
   'x+0.35, z+1/4, -y+1/2'
   '-x+0.85, -z+0.95, y+0.7'
   '-x+0.9, z+0.35, y+0.65'
   'x+0.3, -z+0.85, -y+0.55'
   '-x+0.8, -z+0.8, -y+0.4'
   'x+0.2, z+0.2, y+0.6'
   'x+1/4, -z+0.9, y+3/4'
   '-x+0.95, z+0.3, -y+0.45'
   'z+0.35, y+0.65, -x+0.9'
   '-z+0.85, -y+0.55, x+0.3'
   'z+1/4, -y+1/2, x+0.35'
   '-z+0.95, y+0.7, -x+0.85'
   '-z+0.9, y+3/4, x+1/4'
   'z+0.3, -y+0.45, -x+0.95'
   '-z+0.8, -y+0.4, -x+0.8'
   'z+0.2, y+0.6, x+0.2'
   'x+0.2, y+0.7, z+0.3'
   '-x+0.8, -y+1/2, -z+0.9'
   '-x+0.95, -y+0.55, z+0.2'
   'x+1/4, y+0.65, -z+0.8'
   '-x+0.85, y+0.6, -z+0.85'
   'x+0.35, -y+0.4, z+0.35'
   'x+0.3, -y+0.45, -z+0.95'
   '-x+0.9, y+3/4, z+1/4'
   'z+0.2, x+0.3, y+0.7'
   '-z+0.8, -x+0.9, -y+1/2'
   'z+0.3, -x+0.85, -y+0.55'
   '-z+0.9, x+0.35, y+0.65'
   '-z+0.95, -x+0.95, y+0.6'
   'z+1/4, x+1/4, -y+0.4'
   '-z+0.85, x+0.2, -y+0.45'
   'z+0.35, -x+0.8, y+3/4'
   'y+0.6, z+0.3, x+0.3'
   '-y+0.4, -z+0.9, -x+0.9'
   '-y+0.45, z+0.2, -x+0.85'
   'y+3/4, -z+0.8, x+0.35'
   'y+0.7, -z+0.85, -x+0.95'
   '-y+1/2, z+0.35, x+1/4'
   '-y+0.55, -z+0.95, x+0.2'
   'y+0.65, z+1/4, -x+0.8'
   'y+3/4, x+0.35, -z+0.8'
   '-y+0.45, -x+0.85, z+0.2'
   '-y+0.4, -x+0.9, -z+0.9'
   'y+0.6, x+0.3, z+0.3'
   'y+0.65, -x+0.8, z+1/4'
   '-y+0.55, x+0.2, -z+0.95'
   '-y+1/2, x+1/4, z+0.35'
   'y+0.7, -x+0.95, -z+0.85'
   'x+0.35, z+0.35, -y+0.4'
   '-x+0.85, -z+0.85, y+0.6'
   '-x+0.9, z+1/4, y+3/4'
   'x+0.3, -z+0.95, -y+0.45'
   '-x+0.8, -z+0.9, -y+1/2'
   'x+0.2, z+0.3, y+0.7'
   'x+1/4, -z+0.8, y+0.65'
   '-x+0.95, z+0.2, -y+0.55'
   'z+0.35, y+3/4, -x+0.8'
   '-z+0.85, -y+0.45, x+0.2'
   'z+1/4, -y+0.4, x+1/4'
   '-z+0.95, y+0.6, -x+0.95'
   '-z+0.9, y+0.65, x+0.35'
   'z+0.3, -y+0.55, -x+0.85'
   '-z+0.8, -y+1/2, -x+0.9'
   'z+0.2, y+0.7, x+0.3'
   'x+0.3, y+0.6, z+0.3'
   '-x+0.9, -y+0.4, -z+0.9'
   '-x+0.85, -y+0.45, z+0.2'
   'x+0.35, y+3/4, -z+0.8'
   '-x+0.95, y+0.7, -z+0.85'
   'x+1/4, -y+1/2, z+0.35'
   'x+0.2, -y+0.55, -z+0.95'
   '-x+0.8, y+0.65, z+1/4'
   'z+0.3, x+0.2, y+0.7'
   '-z+0.9, -x+0.8, -y+1/2'
   'z+0.2, -x+0.95, -y+0.55'
   '-z+0.8, x+1/4, y+0.65'
   '-z+0.85, -x+0.85, y+0.6'
   'z+0.35, x+0.35, -y+0.4'
   '-z+0.95, x+0.3, -y+0.45'
   'z+1/4, -x+0.9, y+3/4'
   'y+0.7, z+0.2, x+0.3'
   '-y+1/2, -z+0.8, -x+0.9'
   '-y+0.55, z+0.3, -x+0.85'
   'y+0.65, -z+0.9, x+0.35'
   'y+0.6, -z+0.95, -x+0.95'
   '-y+0.4, z+1/4, x+1/4'
   '-y+0.45, -z+0.85, x+0.2'
   'y+3/4, z+0.35, -x+0.8'
   'y+0.65, x+1/4, -z+0.8'
   '-y+0.55, -x+0.95, z+0.2'
   '-y+1/2, -x+0.8, -z+0.9'
   'y+0.7, x+0.2, z+0.3'
   'y+3/4, -x+0.9, z+1/4'
   '-y+0.45, x+0.3, -z+0.95'
   '-y+0.4, x+0.35, z+0.35'
   'y+0.6, -x+0.85, -z+0.85'
   'x+1/4, z+1/4, -y+0.4'
   '-x+0.95, -z+0.95, y+0.6'
   '-x+0.8, z+0.35, y+3/4'
   'x+0.2, -z+0.85, -y+0.45'
   '-x+0.9, -z+0.8, -y+1/2'
   'x+0.3, z+0.2, y+0.7'
   'x+0.35, -z+0.9, y+0.65'
   '-x+0.85, z+0.3, -y+0.55'
   'z+1/4, y+0.65, -x+0.8'
   '-z+0.95, -y+0.55, x+0.2'
   'z+0.35, -y+1/2, x+1/4'
   '-z+0.85, y+0.7, -x+0.95'
   '-z+0.8, y+3/4, x+0.35'
   'z+0.2, -y+0.45, -x+0.85'
   '-z+0.9, -y+0.4, -x+0.9'
   'z+0.3, y+0.6, x+0.3'
   'x+0.3, y+0.7, z+0.2'
   '-x+0.9, -y+1/2, -z+0.8'
   '-x+0.85, -y+0.55, z+0.3'
   'x+0.35, y+0.65, -z+0.9'
   '-x+0.95, y+0.6, -z+0.95'
   'x+1/4, -y+0.4, z+1/4'
   'x+0.2, -y+0.45, -z+0.85'
   '-x+0.8, y+3/4, z+0.35'
   'z+0.3, x+0.3, y+0.6'
   '-z+0.9, -x+0.9, -y+0.4'
   'z+0.2, -x+0.85, -y+0.45'
   '-z+0.8, x+0.35, y+3/4'
   '-z+0.85, -x+0.95, y+0.7'
   'z+0.35, x+1/4, -y+1/2'
   '-z+0.95, x+0.2, -y+0.55'
   'z+1/4, -x+0.8, y+0.65'
   'y+0.7, z+0.3, x+0.2'
   '-y+1/2, -z+0.9, -x+0.8'
   '-y+0.55, z+0.2, -x+0.95'
   'y+0.65, -z+0.8, x+1/4'
   'y+0.6, -z+0.85, -x+0.85'
   '-y+0.4, z+0.35, x+0.35'
   '-y+0.45, -z+0.95, x+0.3'
   'y+3/4, z+1/4, -x+0.9'
   'y+0.65, x+0.35, -z+0.9'
   '-y+0.55, -x+0.85, z+0.3'
   '-y+1/2, -x+0.9, -z+0.8'
   'y+0.7, x+0.3, z+0.2'
   'y+3/4, -x+0.8, z+0.35'
   '-y+0.45, x+0.2, -z+0.85'
   '-y+0.4, x+1/4, z+1/4'
   'y+0.6, -x+0.95, -z+0.95'
   'x+1/4, z+0.35, -y+1/2'
   '-x+0.95, -z+0.85, y+0.7'
   '-x+0.8, z+1/4, y+0.65'
   'x+0.2, -z+0.95, -y+0.55'
   '-x+0.9, -z+0.9, -y+0.4'
   'x+0.3, z+0.3, y+0.6'
   'x+0.35, -z+0.8, y+3/4'
   '-x+0.85, z+0.2, -y+0.45'
   'z+1/4, y+3/4, -x+0.9'
   '-z+0.95, -y+0.45, x+0.3'
   'z+0.35, -y+0.4, x+0.35'
   '-z+0.85, y+0.6, -x+0.85'
   '-z+0.8, y+0.65, x+1/4'
   'z+0.2, -y+0.55, -x+0.95'
   '-z+0.9, -y+1/2, -x+0.8'
   'z+0.3, y+0.7, x+0.2'
   'x+0.2, y+0.6, z+0.4'
   '-x+0.8, -y+0.4, -z+0.6'
   '-x+0.95, -y+0.45, z+1/2'
   'x+1/4, y+3/4, -z+0.7'
   '-x+0.85, y+0.7, -z+3/4'
   'x+0.35, -y+1/2, z+0.45'
   'x+0.3, -y+0.55, -z+0.65'
   '-x+0.9, y+0.65, z+0.55'
   'z+0.4, x+0.2, y+0.6'
   '-z+0.6, -x+0.8, -y+0.4'
   'z+1/2, -x+0.95, -y+0.45'
   '-z+0.7, x+1/4, y+3/4'
   '-z+3/4, -x+0.85, y+0.7'
   'z+0.45, x+0.35, -y+1/2'
   '-z+0.65, x+0.3, -y+0.55'
   'z+0.55, -x+0.9, y+0.65'
   'y+0.6, z+0.4, x+0.2'
   '-y+0.4, -z+0.6, -x+0.8'
   '-y+0.45, z+1/2, -x+0.95'
   'y+3/4, -z+0.7, x+1/4'
   'y+0.7, -z+3/4, -x+0.85'
   '-y+1/2, z+0.45, x+0.35'
   '-y+0.55, -z+0.65, x+0.3'
   'y+0.65, z+0.55, -x+0.9'
   'y+3/4, x+1/4, -z+0.7'
   '-y+0.45, -x+0.95, z+1/2'
   '-y+0.4, -x+0.8, -z+0.6'
   'y+0.6, x+0.2, z+0.4'
   'y+0.65, -x+0.9, z+0.55'
   '-y+0.55, x+0.3, -z+0.65'
   '-y+1/2, x+0.35, z+0.45'
   'y+0.7, -x+0.85, -z+3/4'
   'x+0.35, z+0.45, -y+1/2'
   '-x+0.85, -z+3/4, y+0.7'
   '-x+0.9, z+0.55, y+0.65'
   'x+0.3, -z+0.65, -y+0.55'
   '-x+0.8, -z+0.6, -y+0.4'
   'x+0.2, z+0.4, y+0.6'
   'x+1/4, -z+0.7, y+3/4'
   '-x+0.95, z+1/2, -y+0.45'
   'z+0.55, y+0.65, -x+0.9'
   '-z+0.65, -y+0.55, x+0.3'
   'z+0.45, -y+1/2, x+0.35'
   '-z+3/4, y+0.7, -x+0.85'
   '-z+0.7, y+3/4, x+1/4'
   'z+1/2, -y+0.45, -x+0.95'
   '-z+0.6, -y+0.4, -x+0.8'
   'z+0.4, y+0.6, x+0.2'
   'x+0.2, y+0.7, z+1/2'
   '-x+0.8, -y+1/2, -z+0.7'
   '-x+0.95, -y+0.55, z+0.4'
   'x+1/4, y+0.65, -z+0.6'
   '-x+0.85, y+0.6, -z+0.65'
   'x+0.35, -y+0.4, z+0.55'
   'x+0.3, -y+0.45, -z+3/4'
   '-x+0.9, y+3/4, z+0.45'
   'z+0.4, x+0.3, y+0.7'
   '-z+0.6, -x+0.9, -y+1/2'
   'z+1/2, -x+0.85, -y+0.55'
   '-z+0.7, x+0.35, y+0.65'
   '-z+3/4, -x+0.95, y+0.6'
   'z+0.45, x+1/4, -y+0.4'
   '-z+0.65, x+0.2, -y+0.45'
   'z+0.55, -x+0.8, y+3/4'
   'y+0.6, z+1/2, x+0.3'
   '-y+0.4, -z+0.7, -x+0.9'
   '-y+0.45, z+0.4, -x+0.85'
   'y+3/4, -z+0.6, x+0.35'
   'y+0.7, -z+0.65, -x+0.95'
   '-y+1/2, z+0.55, x+1/4'
   '-y+0.55, -z+3/4, x+0.2'
   'y+0.65, z+0.45, -x+0.8'
   'y+3/4, x+0.35, -z+0.6'
   '-y+0.45, -x+0.85, z+0.4'
   '-y+0.4, -x+0.9, -z+0.7'
   'y+0.6, x+0.3, z+1/2'
   'y+0.65, -x+0.8, z+0.45'
   '-y+0.55, x+0.2, -z+3/4'
   '-y+1/2, x+1/4, z+0.55'
   'y+0.7, -x+0.95, -z+0.65'
   'x+0.35, z+0.55, -y+0.4'
   '-x+0.85, -z+0.65, y+0.6'
   '-x+0.9, z+0.45, y+3/4'
   'x+0.3, -z+3/4, -y+0.45'
   '-x+0.8, -z+0.7, -y+1/2'
   'x+0.2, z+1/2, y+0.7'
   'x+1/4, -z+0.6, y+0.65'
   '-x+0.95, z+0.4, -y+0.55'
   'z+0.55, y+3/4, -x+0.8'
   '-z+0.65, -y+0.45, x+0.2'
   'z+0.45, -y+0.4, x+1/4'
   '-z+3/4, y+0.6, -x+0.95'
   '-z+0.7, y+0.65, x+0.35'
   'z+1/2, -y+0.55, -x+0.85'
   '-z+0.6, -y+1/2, -x+0.9'
   'z+0.4, y+0.7, x+0.3'
   'x+0.3, y+0.6, z+1/2'
   '-x+0.9, -y+0.4, -z+0.7'
   '-x+0.85, -y+0.45, z+0.4'
   'x+0.35, y+3/4, -z+0.6'
   '-x+0.95, y+0.7, -z+0.65'
   'x+1/4, -y+1/2, z+0.55'
   'x+0.2, -y+0.55, -z+3/4'
   '-x+0.8, y+0.65, z+0.45'
   'z+1/2, x+0.2, y+0.7'
   '-z+0.7, -x+0.8, -y+1/2'
   'z+0.4, -x+0.95, -y+0.55'
   '-z+0.6, x+1/4, y+0.65'
   '-z+0.65, -x+0.85, y+0.6'
   'z+0.55, x+0.35, -y+0.4'
   '-z+3/4, x+0.3, -y+0.45'
   'z+0.45, -x+0.9, y+3/4'
   'y+0.7, z+0.4, x+0.3'
   '-y+1/2, -z+0.6, -x+0.9'
   '-y+0.55, z+1/2, -x+0.85'
   'y+0.65, -z+0.7, x+0.35'
   'y+0.6, -z+3/4, -x+0.95'
   '-y+0.4, z+0.45, x+1/4'
   '-y+0.45, -z+0.65, x+0.2'
   'y+3/4, z+0.55, -x+0.8'
   'y+0.65, x+1/4, -z+0.6'
   '-y+0.55, -x+0.95, z+0.4'
   '-y+1/2, -x+0.8, -z+0.7'
   'y+0.7, x+0.2, z+1/2'
   'y+3/4, -x+0.9, z+0.45'
   '-y+0.45, x+0.3, -z+3/4'
   '-y+0.4, x+0.35, z+0.55'
   'y+0.6, -x+0.85, -z+0.65'
   'x+1/4, z+0.45, -y+0.4'
   '-x+0.95, -z+3/4, y+0.6'
   '-x+0.8, z+0.55, y+3/4'
   'x+0.2, -z+0.65, -y+0.45'
   '-x+0.9, -z+0.6, -y+1/2'
   'x+0.3, z+0.4, y+0.7'
   'x+0.35, -z+0.7, y+0.65'
   '-x+0.85, z+1/2, -y+0.55'
   'z+0.45, y+0.65, -x+0.8'
   '-z+3/4, -y+0.55, x+0.2'
   'z+0.55, -y+1/2, x+1/4'
   '-z+0.65, y+0.7, -x+0.95'
   '-z+0.6, y+3/4, x+0.35'
   'z+0.4, -y+0.45, -x+0.85'
   '-z+0.7, -y+0.4, -x+0.9'
   'z+1/2, y+0.6, x+0.3'
   'x+0.3, y+0.7, z+0.4'
   '-x+0.9, -y+1/2, -z+0.6'
   '-x+0.85, -y+0.55, z+1/2'
   'x+0.35, y+0.65, -z+0.7'
   '-x+0.95, y+0.6, -z+3/4'
   'x+1/4, -y+0.4, z+0.45'
   'x+0.2, -y+0.45, -z+0.65'
   '-x+0.8, y+3/4, z+0.55'
   'z+1/2, x+0.3, y+0.6'
   '-z+0.7, -x+0.9, -y+0.4'
   'z+0.4, -x+0.85, -y+0.45'
   '-z+0.6, x+0.35, y+3/4'
   '-z+0.65, -x+0.95, y+0.7'
   'z+0.55, x+1/4, -y+1/2'
   '-z+3/4, x+0.2, -y+0.55'
   'z+0.45, -x+0.8, y+0.65'
   'y+0.7, z+1/2, x+0.2'
   '-y+1/2, -z+0.7, -x+0.8'
   '-y+0.55, z+0.4, -x+0.95'
   'y+0.65, -z+0.6, x+1/4'
   'y+0.6, -z+0.65, -x+0.85'
   '-y+0.4, z+0.55, x+0.35'
   '-y+0.45, -z+3/4, x+0.3'
   'y+3/4, z+0.45, -x+0.9'
   'y+0.65, x+0.35, -z+0.7'
   '-y+0.55, -x+0.85, z+1/2'
   '-y+1/2, -x+0.9, -z+0.6'
   'y+0.7, x+0.3, z+0.4'
   'y+3/4, -x+0.8, z+0.55'
   '-y+0.45, x+0.2, -z+0.65'
   '-y+0.4, x+1/4, z+0.45'
   'y+0.6, -x+0.95, -z+3/4'
   'x+1/4, z+0.55, -y+1/2'
   '-x+0.95, -z+0.65, y+0.7'
   '-x+0.8, z+0.45, y+0.65'
   'x+0.2, -z+3/4, -y+0.55'
   '-x+0.9, -z+0.7, -y+0.4'
   'x+0.3, z+1/2, y+0.6'
   'x+0.35, -z+0.6, y+3/4'
   '-x+0.85, z+0.4, -y+0.45'
   'z+0.45, y+3/4, -x+0.9'
   '-z+3/4, -y+0.45, x+0.3'
   'z+0.55, -y+0.4, x+0.35'
   '-z+0.65, y+0.6, -x+0.85'
   '-z+0.6, y+0.65, x+1/4'
   'z+0.4, -y+0.55, -x+0.95'
   '-z+0.7, -y+1/2, -x+0.8'
   'z+1/2, y+0.7, x+0.2'
   'x+0.2, y+0.6, z+0.6'
   '-x+0.8, -y+0.4, -z+0.4'
   '-x+0.95, -y+0.45, z+0.7'
   'x+1/4, y+3/4, -z+1/2'
   '-x+0.85, y+0.7, -z+0.55'
   'x+0.35, -y+1/2, z+0.65'
   'x+0.3, -y+0.55, -z+0.45'
   '-x+0.9, y+0.65, z+3/4'
   'z+0.6, x+0.2, y+0.6'
   '-z+0.4, -x+0.8, -y+0.4'
   'z+0.7, -x+0.95, -y+0.45'
   '-z+1/2, x+1/4, y+3/4'
   '-z+0.55, -x+0.85, y+0.7'
   'z+0.65, x+0.35, -y+1/2'
   '-z+0.45, x+0.3, -y+0.55'
   'z+3/4, -x+0.9, y+0.65'
   'y+0.6, z+0.6, x+0.2'
   '-y+0.4, -z+0.4, -x+0.8'
   '-y+0.45, z+0.7, -x+0.95'
   'y+3/4, -z+1/2, x+1/4'
   'y+0.7, -z+0.55, -x+0.85'
   '-y+1/2, z+0.65, x+0.35'
   '-y+0.55, -z+0.45, x+0.3'
   'y+0.65, z+3/4, -x+0.9'
   'y+3/4, x+1/4, -z+1/2'
   '-y+0.45, -x+0.95, z+0.7'
   '-y+0.4, -x+0.8, -z+0.4'
   'y+0.6, x+0.2, z+0.6'
   'y+0.65, -x+0.9, z+3/4'
   '-y+0.55, x+0.3, -z+0.45'
   '-y+1/2, x+0.35, z+0.65'
   'y+0.7, -x+0.85, -z+0.55'
   'x+0.35, z+0.65, -y+1/2'
   '-x+0.85, -z+0.55, y+0.7'
   '-x+0.9, z+3/4, y+0.65'
   'x+0.3, -z+0.45, -y+0.55'
   '-x+0.8, -z+0.4, -y+0.4'
   'x+0.2, z+0.6, y+0.6'
   'x+1/4, -z+1/2, y+3/4'
   '-x+0.95, z+0.7, -y+0.45'
   'z+3/4, y+0.65, -x+0.9'
   '-z+0.45, -y+0.55, x+0.3'
   'z+0.65, -y+1/2, x+0.35'
   '-z+0.55, y+0.7, -x+0.85'
   '-z+1/2, y+3/4, x+1/4'
   'z+0.7, -y+0.45, -x+0.95'
   '-z+0.4, -y+0.4, -x+0.8'
   'z+0.6, y+0.6, x+0.2'
   'x+0.2, y+0.7, z+0.7'
   '-x+0.8, -y+1/2, -z+1/2'
   '-x+0.95, -y+0.55, z+0.6'
   'x+1/4, y+0.65, -z+0.4'
   '-x+0.85, y+0.6, -z+0.45'
   'x+0.35, -y+0.4, z+3/4'
   'x+0.3, -y+0.45, -z+0.55'
   '-x+0.9, y+3/4, z+0.65'
   'z+0.6, x+0.3, y+0.7'
   '-z+0.4, -x+0.9, -y+1/2'
   'z+0.7, -x+0.85, -y+0.55'
   '-z+1/2, x+0.35, y+0.65'
   '-z+0.55, -x+0.95, y+0.6'
   'z+0.65, x+1/4, -y+0.4'
   '-z+0.45, x+0.2, -y+0.45'
   'z+3/4, -x+0.8, y+3/4'
   'y+0.6, z+0.7, x+0.3'
   '-y+0.4, -z+1/2, -x+0.9'
   '-y+0.45, z+0.6, -x+0.85'
   'y+3/4, -z+0.4, x+0.35'
   'y+0.7, -z+0.45, -x+0.95'
   '-y+1/2, z+3/4, x+1/4'
   '-y+0.55, -z+0.55, x+0.2'
   'y+0.65, z+0.65, -x+0.8'
   'y+3/4, x+0.35, -z+0.4'
   '-y+0.45, -x+0.85, z+0.6'
   '-y+0.4, -x+0.9, -z+1/2'
   'y+0.6, x+0.3, z+0.7'
   'y+0.65, -x+0.8, z+0.65'
   '-y+0.55, x+0.2, -z+0.55'
   '-y+1/2, x+1/4, z+3/4'
   'y+0.7, -x+0.95, -z+0.45'
   'x+0.35, z+3/4, -y+0.4'
   '-x+0.85, -z+0.45, y+0.6'
   '-x+0.9, z+0.65, y+3/4'
   'x+0.3, -z+0.55, -y+0.45'
   '-x+0.8, -z+1/2, -y+1/2'
   'x+0.2, z+0.7, y+0.7'
   'x+1/4, -z+0.4, y+0.65'
   '-x+0.95, z+0.6, -y+0.55'
   'z+3/4, y+3/4, -x+0.8'
   '-z+0.45, -y+0.45, x+0.2'
   'z+0.65, -y+0.4, x+1/4'
   '-z+0.55, y+0.6, -x+0.95'
   '-z+1/2, y+0.65, x+0.35'
   'z+0.7, -y+0.55, -x+0.85'
   '-z+0.4, -y+1/2, -x+0.9'
   'z+0.6, y+0.7, x+0.3'
   'x+0.3, y+0.6, z+0.7'
   '-x+0.9, -y+0.4, -z+1/2'
   '-x+0.85, -y+0.45, z+0.6'
   'x+0.35, y+3/4, -z+0.4'
   '-x+0.95, y+0.7, -z+0.45'
   'x+1/4, -y+1/2, z+3/4'
   'x+0.2, -y+0.55, -z+0.55'
   '-x+0.8, y+0.65, z+0.65'
   'z+0.7, x+0.2, y+0.7'
   '-z+1/2, -x+0.8, -y+1/2'
   'z+0.6, -x+0.95, -y+0.55'
   '-z+0.4, x+1/4, y+0.65'
   '-z+0.45, -x+0.85, y+0.6'
   'z+3/4, x+0.35, -y+0.4'
   '-z+0.55, x+0.3, -y+0.45'
   'z+0.65, -x+0.9, y+3/4'
   'y+0.7, z+0.6, x+0.3'
   '-y+1/2, -z+0.4, -x+0.9'
   '-y+0.55, z+0.7, -x+0.85'
   'y+0.65, -z+1/2, x+0.35'
   'y+0.6, -z+0.55, -x+0.95'
   '-y+0.4, z+0.65, x+1/4'
   '-y+0.45, -z+0.45, x+0.2'
   'y+3/4, z+3/4, -x+0.8'
   'y+0.65, x+1/4, -z+0.4'
   '-y+0.55, -x+0.95, z+0.6'
   '-y+1/2, -x+0.8, -z+1/2'
   'y+0.7, x+0.2, z+0.7'
   'y+3/4, -x+0.9, z+0.65'
   '-y+0.45, x+0.3, -z+0.55'
   '-y+0.4, x+0.35, z+3/4'
   'y+0.6, -x+0.85, -z+0.45'
   'x+1/4, z+0.65, -y+0.4'
   '-x+0.95, -z+0.55, y+0.6'
   '-x+0.8, z+3/4, y+3/4'
   'x+0.2, -z+0.45, -y+0.45'
   '-x+0.9, -z+0.4, -y+1/2'
   'x+0.3, z+0.6, y+0.7'
   'x+0.35, -z+1/2, y+0.65'
   '-x+0.85, z+0.7, -y+0.55'
   'z+0.65, y+0.65, -x+0.8'
   '-z+0.55, -y+0.55, x+0.2'
   'z+3/4, -y+1/2, x+1/4'
   '-z+0.45, y+0.7, -x+0.95'
   '-z+0.4, y+3/4, x+0.35'
   'z+0.6, -y+0.45, -x+0.85'
   '-z+1/2, -y+0.4, -x+0.9'
   'z+0.7, y+0.6, x+0.3'
   'x+0.3, y+0.7, z+0.6'
   '-x+0.9, -y+1/2, -z+0.4'
   '-x+0.85, -y+0.55, z+0.7'
   'x+0.35, y+0.65, -z+1/2'
   '-x+0.95, y+0.6, -z+0.55'
   'x+1/4, -y+0.4, z+0.65'
   'x+0.2, -y+0.45, -z+0.45'
   '-x+0.8, y+3/4, z+3/4'
   'z+0.7, x+0.3, y+0.6'
   '-z+1/2, -x+0.9, -y+0.4'
   'z+0.6, -x+0.85, -y+0.45'
   '-z+0.4, x+0.35, y+3/4'
   '-z+0.45, -x+0.95, y+0.7'
   'z+3/4, x+1/4, -y+1/2'
   '-z+0.55, x+0.2, -y+0.55'
   'z+0.65, -x+0.8, y+0.65'
   'y+0.7, z+0.7, x+0.2'
   '-y+1/2, -z+1/2, -x+0.8'
   '-y+0.55, z+0.6, -x+0.95'
   'y+0.65, -z+0.4, x+1/4'
   'y+0.6, -z+0.45, -x+0.85'
   '-y+0.4, z+3/4, x+0.35'
   '-y+0.45, -z+0.55, x+0.3'
   'y+3/4, z+0.65, -x+0.9'
   'y+0.65, x+0.35, -z+1/2'
   '-y+0.55, -x+0.85, z+0.7'
   '-y+1/2, -x+0.9, -z+0.4'
   'y+0.7, x+0.3, z+0.6'
   'y+3/4, -x+0.8, z+3/4'
   '-y+0.45, x+0.2, -z+0.45'
   '-y+0.4, x+1/4, z+0.65'
   'y+0.6, -x+0.95, -z+0.55'
   'x+1/4, z+3/4, -y+1/2'
   '-x+0.95, -z+0.45, y+0.7'
   '-x+0.8, z+0.65, y+0.65'
   'x+0.2, -z+0.55, -y+0.55'
   '-x+0.9, -z+1/2, -y+0.4'
   'x+0.3, z+0.7, y+0.6'
   'x+0.35, -z+0.4, y+3/4'
   '-x+0.85, z+0.6, -y+0.45'
   'z+0.65, y+3/4, -x+0.9'
   '-z+0.55, -y+0.45, x+0.3'
   'z+3/4, -y+0.4, x+0.35'
   '-z+0.45, y+0.6, -x+0.85'
   '-z+0.4, y+0.65, x+1/4'
   'z+0.6, -y+0.55, -x+0.95'
   '-z+1/2, -y+1/2, -x+0.8'
   'z+0.7, y+0.7, x+0.2'
   'x+0.2, y+0.6, z+0.8'
   '-x+0.8, -y+0.4, -z+0.2'
   '-x+0.95, -y+0.45, z+0.9'
   'x+1/4, y+3/4, -z+0.3'
   '-x+0.85, y+0.7, -z+0.35'
   'x+0.35, -y+1/2, z+0.85'
   'x+0.3, -y+0.55, -z+1/4'
   '-x+0.9, y+0.65, z+0.95'
   'z+0.8, x+0.2, y+0.6'
   '-z+0.2, -x+0.8, -y+0.4'
   'z+0.9, -x+0.95, -y+0.45'
   '-z+0.3, x+1/4, y+3/4'
   '-z+0.35, -x+0.85, y+0.7'
   'z+0.85, x+0.35, -y+1/2'
   '-z+1/4, x+0.3, -y+0.55'
   'z+0.95, -x+0.9, y+0.65'
   'y+0.6, z+0.8, x+0.2'
   '-y+0.4, -z+0.2, -x+0.8'
   '-y+0.45, z+0.9, -x+0.95'
   'y+3/4, -z+0.3, x+1/4'
   'y+0.7, -z+0.35, -x+0.85'
   '-y+1/2, z+0.85, x+0.35'
   '-y+0.55, -z+1/4, x+0.3'
   'y+0.65, z+0.95, -x+0.9'
   'y+3/4, x+1/4, -z+0.3'
   '-y+0.45, -x+0.95, z+0.9'
   '-y+0.4, -x+0.8, -z+0.2'
   'y+0.6, x+0.2, z+0.8'
   'y+0.65, -x+0.9, z+0.95'
   '-y+0.55, x+0.3, -z+1/4'
   '-y+1/2, x+0.35, z+0.85'
   'y+0.7, -x+0.85, -z+0.35'
   'x+0.35, z+0.85, -y+1/2'
   '-x+0.85, -z+0.35, y+0.7'
   '-x+0.9, z+0.95, y+0.65'
   'x+0.3, -z+1/4, -y+0.55'
   '-x+0.8, -z+0.2, -y+0.4'
   'x+0.2, z+0.8, y+0.6'
   'x+1/4, -z+0.3, y+3/4'
   '-x+0.95, z+0.9, -y+0.45'
   'z+0.95, y+0.65, -x+0.9'
   '-z+1/4, -y+0.55, x+0.3'
   'z+0.85, -y+1/2, x+0.35'
   '-z+0.35, y+0.7, -x+0.85'
   '-z+0.3, y+3/4, x+1/4'
   'z+0.9, -y+0.45, -x+0.95'
   '-z+0.2, -y+0.4, -x+0.8'
   'z+0.8, y+0.6, x+0.2'
   'x+0.2, y+0.7, z+0.9'
   '-x+0.8, -y+1/2, -z+0.3'
   '-x+0.95, -y+0.55, z+0.8'
   'x+1/4, y+0.65, -z+0.2'
   '-x+0.85, y+0.6, -z+1/4'
   'x+0.35, -y+0.4, z+0.95'
   'x+0.3, -y+0.45, -z+0.35'
   '-x+0.9, y+3/4, z+0.85'
   'z+0.8, x+0.3, y+0.7'
   '-z+0.2, -x+0.9, -y+1/2'
   'z+0.9, -x+0.85, -y+0.55'
   '-z+0.3, x+0.35, y+0.65'
   '-z+0.35, -x+0.95, y+0.6'
   'z+0.85, x+1/4, -y+0.4'
   '-z+1/4, x+0.2, -y+0.45'
   'z+0.95, -x+0.8, y+3/4'
   'y+0.6, z+0.9, x+0.3'
   '-y+0.4, -z+0.3, -x+0.9'
   '-y+0.45, z+0.8, -x+0.85'
   'y+3/4, -z+0.2, x+0.35'
   'y+0.7, -z+1/4, -x+0.95'
   '-y+1/2, z+0.95, x+1/4'
   '-y+0.55, -z+0.35, x+0.2'
   'y+0.65, z+0.85, -x+0.8'
   'y+3/4, x+0.35, -z+0.2'
   '-y+0.45, -x+0.85, z+0.8'
   '-y+0.4, -x+0.9, -z+0.3'
   'y+0.6, x+0.3, z+0.9'
   'y+0.65, -x+0.8, z+0.85'
   '-y+0.55, x+0.2, -z+0.35'
   '-y+1/2, x+1/4, z+0.95'
   'y+0.7, -x+0.95, -z+1/4'
   'x+0.35, z+0.95, -y+0.4'
   '-x+0.85, -z+1/4, y+0.6'
   '-x+0.9, z+0.85, y+3/4'
   'x+0.3, -z+0.35, -y+0.45'
   '-x+0.8, -z+0.3, -y+1/2'
   'x+0.2, z+0.9, y+0.7'
   'x+1/4, -z+0.2, y+0.65'
   '-x+0.95, z+0.8, -y+0.55'
   'z+0.95, y+3/4, -x+0.8'
   '-z+1/4, -y+0.45, x+0.2'
   'z+0.85, -y+0.4, x+1/4'
   '-z+0.35, y+0.6, -x+0.95'
   '-z+0.3, y+0.65, x+0.35'
   'z+0.9, -y+0.55, -x+0.85'
   '-z+0.2, -y+1/2, -x+0.9'
   'z+0.8, y+0.7, x+0.3'
   'x+0.3, y+0.6, z+0.9'
   '-x+0.9, -y+0.4, -z+0.3'
   '-x+0.85, -y+0.45, z+0.8'
   'x+0.35, y+3/4, -z+0.2'
   '-x+0.95, y+0.7, -z+1/4'
   'x+1/4, -y+1/2, z+0.95'
   'x+0.2, -y+0.55, -z+0.35'
   '-x+0.8, y+0.65, z+0.85'
   'z+0.9, x+0.2, y+0.7'
   '-z+0.3, -x+0.8, -y+1/2'
   'z+0.8, -x+0.95, -y+0.55'
   '-z+0.2, x+1/4, y+0.65'
   '-z+1/4, -x+0.85, y+0.6'
   'z+0.95, x+0.35, -y+0.4'
   '-z+0.35, x+0.3, -y+0.45'
   'z+0.85, -x+0.9, y+3/4'
   'y+0.7, z+0.8, x+0.3'
   '-y+1/2, -z+0.2, -x+0.9'
   '-y+0.55, z+0.9, -x+0.85'
   'y+0.65, -z+0.3, x+0.35'
   'y+0.6, -z+0.35, -x+0.95'
   '-y+0.4, z+0.85, x+1/4'
   '-y+0.45, -z+1/4, x+0.2'
   'y+3/4, z+0.95, -x+0.8'
   'y+0.65, x+1/4, -z+0.2'
   '-y+0.55, -x+0.95, z+0.8'
   '-y+1/2, -x+0.8, -z+0.3'
   'y+0.7, x+0.2, z+0.9'
   'y+3/4, -x+0.9, z+0.85'
   '-y+0.45, x+0.3, -z+0.35'
   '-y+0.4, x+0.35, z+0.95'
   'y+0.6, -x+0.85, -z+1/4'
   'x+1/4, z+0.85, -y+0.4'
   '-x+0.95, -z+0.35, y+0.6'
   '-x+0.8, z+0.95, y+3/4'
   'x+0.2, -z+1/4, -y+0.45'
   '-x+0.9, -z+0.2, -y+1/2'
   'x+0.3, z+0.8, y+0.7'
   'x+0.35, -z+0.3, y+0.65'
   '-x+0.85, z+0.9, -y+0.55'
   'z+0.85, y+0.65, -x+0.8'
   '-z+0.35, -y+0.55, x+0.2'
   'z+0.95, -y+1/2, x+1/4'
   '-z+1/4, y+0.7, -x+0.95'
   '-z+0.2, y+3/4, x+0.35'
   'z+0.8, -y+0.45, -x+0.85'
   '-z+0.3, -y+0.4, -x+0.9'
   'z+0.9, y+0.6, x+0.3'
   'x+0.3, y+0.7, z+0.8'
   '-x+0.9, -y+1/2, -z+0.2'
   '-x+0.85, -y+0.55, z+0.9'
   'x+0.35, y+0.65, -z+0.3'
   '-x+0.95, y+0.6, -z+0.35'
   'x+1/4, -y+0.4, z+0.85'
   'x+0.2, -y+0.45, -z+1/4'
   '-x+0.8, y+3/4, z+0.95'
   'z+0.9, x+0.3, y+0.6'
   '-z+0.3, -x+0.9, -y+0.4'
   'z+0.8, -x+0.85, -y+0.45'
   '-z+0.2, x+0.35, y+3/4'
   '-z+1/4, -x+0.95, y+0.7'
   'z+0.95, x+1/4, -y+1/2'
   '-z+0.35, x+0.2, -y+0.55'
   'z+0.85, -x+0.8, y+0.65'
   'y+0.7, z+0.9, x+0.2'
   '-y+1/2, -z+0.3, -x+0.8'
   '-y+0.55, z+0.8, -x+0.95'
   'y+0.65, -z+0.2, x+1/4'
   'y+0.6, -z+1/4, -x+0.85'
   '-y+0.4, z+0.95, x+0.35'
   '-y+0.45, -z+0.35, x+0.3'
   'y+3/4, z+0.85, -x+0.9'
   'y+0.65, x+0.35, -z+0.3'
   '-y+0.55, -x+0.85, z+0.9'
   '-y+1/2, -x+0.9, -z+0.2'
   'y+0.7, x+0.3, z+0.8'
   'y+3/4, -x+0.8, z+0.95'
   '-y+0.45, x+0.2, -z+1/4'
   '-y+0.4, x+1/4, z+0.85'
   'y+0.6, -x+0.95, -z+0.35'
   'x+1/4, z+0.95, -y+1/2'
   '-x+0.95, -z+1/4, y+0.7'
   '-x+0.8, z+0.85, y+0.65'
   'x+0.2, -z+0.35, -y+0.55'
   '-x+0.9, -z+0.3, -y+0.4'
   'x+0.3, z+0.9, y+0.6'
   'x+0.35, -z+0.2, y+3/4'
   '-x+0.85, z+0.8, -y+0.45'
   'z+0.85, y+3/4, -x+0.9'
   '-z+0.35, -y+0.45, x+0.3'
   'z+0.95, -y+0.4, x+0.35'
   '-z+1/4, y+0.6, -x+0.85'
   '-z+0.2, y+0.65, x+1/4'
   'z+0.8, -y+0.55, -x+0.95'
   '-z+0.3, -y+1/2, -x+0.8'
   'z+0.9, y+0.7, x+0.2'
   'x+0.2, y+0.8, z'
   '-x+0.8, -y+0.2, -z'
   '-x+0.95, -y+1/4, z+0.1'
   'x+1/4, y+0.95, -z+0.1'
   '-x+0.85, y+0.9, -z+0.15'
   'x+0.35, -y+0.3, z+0.05'
   'x+0.3, -y+0.35, -z+0.05'
   '-x+0.9, y+0.85, z+0.15'
   'z, x+0.2, y+0.8'
   '-z, -x+0.8, -y+0.2'
   'z+0.1, -x+0.95, -y+1/4'
   '-z+0.1, x+1/4, y+0.95'
   '-z+0.15, -x+0.85, y+0.9'
   'z+0.05, x+0.35, -y+0.3'
   '-z+0.05, x+0.3, -y+0.35'
   'z+0.15, -x+0.9, y+0.85'
   'y+0.8, z, x+0.2'
   '-y+0.2, -z, -x+0.8'
   '-y+1/4, z+0.1, -x+0.95'
   'y+0.95, -z+0.1, x+1/4'
   'y+0.9, -z+0.15, -x+0.85'
   '-y+0.3, z+0.05, x+0.35'
   '-y+0.35, -z+0.05, x+0.3'
   'y+0.85, z+0.15, -x+0.9'
   'y+0.95, x+1/4, -z+0.1'
   '-y+1/4, -x+0.95, z+0.1'
   '-y+0.2, -x+0.8, -z'
   'y+0.8, x+0.2, z'
   'y+0.85, -x+0.9, z+0.15'
   '-y+0.35, x+0.3, -z+0.05'
   '-y+0.3, x+0.35, z+0.05'
   'y+0.9, -x+0.85, -z+0.15'
   'x+0.35, z+0.05, -y+0.3'
   '-x+0.85, -z+0.15, y+0.9'
   '-x+0.9, z+0.15, y+0.85'
   'x+0.3, -z+0.05, -y+0.35'
   '-x+0.8, -z, -y+0.2'
   'x+0.2, z, y+0.8'
   'x+1/4, -z+0.1, y+0.95'
   '-x+0.95, z+0.1, -y+1/4'
   'z+0.15, y+0.85, -x+0.9'
   '-z+0.05, -y+0.35, x+0.3'
   'z+0.05, -y+0.3, x+0.35'
   '-z+0.15, y+0.9, -x+0.85'
   '-z+0.1, y+0.95, x+1/4'
   'z+0.1, -y+1/4, -x+0.95'
   '-z, -y+0.2, -x+0.8'
   'z, y+0.8, x+0.2'
   'x+0.2, y+0.9, z+0.1'
   '-x+0.8, -y+0.3, -z+0.1'
   '-x+0.95, -y+0.35, z'
   'x+1/4, y+0.85, -z'
   '-x+0.85, y+0.8, -z+0.05'
   'x+0.35, -y+0.2, z+0.15'
   'x+0.3, -y+1/4, -z+0.15'
   '-x+0.9, y+0.95, z+0.05'
   'z, x+0.3, y+0.9'
   '-z, -x+0.9, -y+0.3'
   'z+0.1, -x+0.85, -y+0.35'
   '-z+0.1, x+0.35, y+0.85'
   '-z+0.15, -x+0.95, y+0.8'
   'z+0.05, x+1/4, -y+0.2'
   '-z+0.05, x+0.2, -y+1/4'
   'z+0.15, -x+0.8, y+0.95'
   'y+0.8, z+0.1, x+0.3'
   '-y+0.2, -z+0.1, -x+0.9'
   '-y+1/4, z, -x+0.85'
   'y+0.95, -z, x+0.35'
   'y+0.9, -z+0.05, -x+0.95'
   '-y+0.3, z+0.15, x+1/4'
   '-y+0.35, -z+0.15, x+0.2'
   'y+0.85, z+0.05, -x+0.8'
   'y+0.95, x+0.35, -z'
   '-y+1/4, -x+0.85, z'
   '-y+0.2, -x+0.9, -z+0.1'
   'y+0.8, x+0.3, z+0.1'
   'y+0.85, -x+0.8, z+0.05'
   '-y+0.35, x+0.2, -z+0.15'
   '-y+0.3, x+1/4, z+0.15'
   'y+0.9, -x+0.95, -z+0.05'
   'x+0.35, z+0.15, -y+0.2'
   '-x+0.85, -z+0.05, y+0.8'
   '-x+0.9, z+0.05, y+0.95'
   'x+0.3, -z+0.15, -y+1/4'
   '-x+0.8, -z+0.1, -y+0.3'
   'x+0.2, z+0.1, y+0.9'
   'x+1/4, -z, y+0.85'
   '-x+0.95, z, -y+0.35'
   'z+0.15, y+0.95, -x+0.8'
   '-z+0.05, -y+1/4, x+0.2'
   'z+0.05, -y+0.2, x+1/4'
   '-z+0.15, y+0.8, -x+0.95'
   '-z+0.1, y+0.85, x+0.35'
   'z+0.1, -y+0.35, -x+0.85'
   '-z, -y+0.3, -x+0.9'
   'z, y+0.9, x+0.3'
   'x+0.3, y+0.8, z+0.1'
   '-x+0.9, -y+0.2, -z+0.1'
   '-x+0.85, -y+1/4, z'
   'x+0.35, y+0.95, -z'
   '-x+0.95, y+0.9, -z+0.05'
   'x+1/4, -y+0.3, z+0.15'
   'x+0.2, -y+0.35, -z+0.15'
   '-x+0.8, y+0.85, z+0.05'
   'z+0.1, x+0.2, y+0.9'
   '-z+0.1, -x+0.8, -y+0.3'
   'z, -x+0.95, -y+0.35'
   '-z, x+1/4, y+0.85'
   '-z+0.05, -x+0.85, y+0.8'
   'z+0.15, x+0.35, -y+0.2'
   '-z+0.15, x+0.3, -y+1/4'
   'z+0.05, -x+0.9, y+0.95'
   'y+0.9, z, x+0.3'
   '-y+0.3, -z, -x+0.9'
   '-y+0.35, z+0.1, -x+0.85'
   'y+0.85, -z+0.1, x+0.35'
   'y+0.8, -z+0.15, -x+0.95'
   '-y+0.2, z+0.05, x+1/4'
   '-y+1/4, -z+0.05, x+0.2'
   'y+0.95, z+0.15, -x+0.8'
   'y+0.85, x+1/4, -z'
   '-y+0.35, -x+0.95, z'
   '-y+0.3, -x+0.8, -z+0.1'
   'y+0.9, x+0.2, z+0.1'
   'y+0.95, -x+0.9, z+0.05'
   '-y+1/4, x+0.3, -z+0.15'
   '-y+0.2, x+0.35, z+0.15'
   'y+0.8, -x+0.85, -z+0.05'
   'x+1/4, z+0.05, -y+0.2'
   '-x+0.95, -z+0.15, y+0.8'
   '-x+0.8, z+0.15, y+0.95'
   'x+0.2, -z+0.05, -y+1/4'
   '-x+0.9, -z, -y+0.3'
   'x+0.3, z, y+0.9'
   'x+0.35, -z+0.1, y+0.85'
   '-x+0.85, z+0.1, -y+0.35'
   'z+0.05, y+0.85, -x+0.8'
   '-z+0.15, -y+0.35, x+0.2'
   'z+0.15, -y+0.3, x+1/4'
   '-z+0.05, y+0.9, -x+0.95'
   '-z, y+0.95, x+0.35'
   'z, -y+1/4, -x+0.85'
   '-z+0.1, -y+0.2, -x+0.9'
   'z+0.1, y+0.8, x+0.3'
   'x+0.3, y+0.9, z'
   '-x+0.9, -y+0.3, -z'
   '-x+0.85, -y+0.35, z+0.1'
   'x+0.35, y+0.85, -z+0.1'
   '-x+0.95, y+0.8, -z+0.15'
   'x+1/4, -y+0.2, z+0.05'
   'x+0.2, -y+1/4, -z+0.05'
   '-x+0.8, y+0.95, z+0.15'
   'z+0.1, x+0.3, y+0.8'
   '-z+0.1, -x+0.9, -y+0.2'
   'z, -x+0.85, -y+1/4'
   '-z, x+0.35, y+0.95'
   '-z+0.05, -x+0.95, y+0.9'
   'z+0.15, x+1/4, -y+0.3'
   '-z+0.15, x+0.2, -y+0.35'
   'z+0.05, -x+0.8, y+0.85'
   'y+0.9, z+0.1, x+0.2'
   '-y+0.3, -z+0.1, -x+0.8'
   '-y+0.35, z, -x+0.95'
   'y+0.85, -z, x+1/4'
   'y+0.8, -z+0.05, -x+0.85'
   '-y+0.2, z+0.15, x+0.35'
   '-y+1/4, -z+0.15, x+0.3'
   'y+0.95, z+0.05, -x+0.9'
   'y+0.85, x+0.35, -z+0.1'
   '-y+0.35, -x+0.85, z+0.1'
   '-y+0.3, -x+0.9, -z'
   'y+0.9, x+0.3, z'
   'y+0.95, -x+0.8, z+0.15'
   '-y+1/4, x+0.2, -z+0.05'
   '-y+0.2, x+1/4, z+0.05'
   'y+0.8, -x+0.95, -z+0.15'
   'x+1/4, z+0.15, -y+0.3'
   '-x+0.95, -z+0.05, y+0.9'
   '-x+0.8, z+0.05, y+0.85'
   'x+0.2, -z+0.15, -y+0.35'
   '-x+0.9, -z+0.1, -y+0.2'
   'x+0.3, z+0.1, y+0.8'
   'x+0.35, -z, y+0.95'
   '-x+0.85, z, -y+1/4'
   'z+0.05, y+0.95, -x+0.9'
   '-z+0.15, -y+1/4, x+0.3'
   'z+0.15, -y+0.2, x+0.35'
   '-z+0.05, y+0.8, -x+0.85'
   '-z, y+0.85, x+1/4'
   'z, -y+0.35, -x+0.95'
   '-z+0.1, -y+0.3, -x+0.8'
   'z+0.1, y+0.9, x+0.2'
   'x+0.2, y+0.8, z+0.2'
   '-x+0.8, -y+0.2, -z+0.8'
   '-x+0.95, -y+1/4, z+0.3'
   'x+1/4, y+0.95, -z+0.9'
   '-x+0.85, y+0.9, -z+0.95'
   'x+0.35, -y+0.3, z+1/4'
   'x+0.3, -y+0.35, -z+0.85'
   '-x+0.9, y+0.85, z+0.35'
   'z+0.2, x+0.2, y+0.8'
   '-z+0.8, -x+0.8, -y+0.2'
   'z+0.3, -x+0.95, -y+1/4'
   '-z+0.9, x+1/4, y+0.95'
   '-z+0.95, -x+0.85, y+0.9'
   'z+1/4, x+0.35, -y+0.3'
   '-z+0.85, x+0.3, -y+0.35'
   'z+0.35, -x+0.9, y+0.85'
   'y+0.8, z+0.2, x+0.2'
   '-y+0.2, -z+0.8, -x+0.8'
   '-y+1/4, z+0.3, -x+0.95'
   'y+0.95, -z+0.9, x+1/4'
   'y+0.9, -z+0.95, -x+0.85'
   '-y+0.3, z+1/4, x+0.35'
   '-y+0.35, -z+0.85, x+0.3'
   'y+0.85, z+0.35, -x+0.9'
   'y+0.95, x+1/4, -z+0.9'
   '-y+1/4, -x+0.95, z+0.3'
   '-y+0.2, -x+0.8, -z+0.8'
   'y+0.8, x+0.2, z+0.2'
   'y+0.85, -x+0.9, z+0.35'
   '-y+0.35, x+0.3, -z+0.85'
   '-y+0.3, x+0.35, z+1/4'
   'y+0.9, -x+0.85, -z+0.95'
   'x+0.35, z+1/4, -y+0.3'
   '-x+0.85, -z+0.95, y+0.9'
   '-x+0.9, z+0.35, y+0.85'
   'x+0.3, -z+0.85, -y+0.35'
   '-x+0.8, -z+0.8, -y+0.2'
   'x+0.2, z+0.2, y+0.8'
   'x+1/4, -z+0.9, y+0.95'
   '-x+0.95, z+0.3, -y+1/4'
   'z+0.35, y+0.85, -x+0.9'
   '-z+0.85, -y+0.35, x+0.3'
   'z+1/4, -y+0.3, x+0.35'
   '-z+0.95, y+0.9, -x+0.85'
   '-z+0.9, y+0.95, x+1/4'
   'z+0.3, -y+1/4, -x+0.95'
   '-z+0.8, -y+0.2, -x+0.8'
   'z+0.2, y+0.8, x+0.2'
   'x+0.2, y+0.9, z+0.3'
   '-x+0.8, -y+0.3, -z+0.9'
   '-x+0.95, -y+0.35, z+0.2'
   'x+1/4, y+0.85, -z+0.8'
   '-x+0.85, y+0.8, -z+0.85'
   'x+0.35, -y+0.2, z+0.35'
   'x+0.3, -y+1/4, -z+0.95'
   '-x+0.9, y+0.95, z+1/4'
   'z+0.2, x+0.3, y+0.9'
   '-z+0.8, -x+0.9, -y+0.3'
   'z+0.3, -x+0.85, -y+0.35'
   '-z+0.9, x+0.35, y+0.85'
   '-z+0.95, -x+0.95, y+0.8'
   'z+1/4, x+1/4, -y+0.2'
   '-z+0.85, x+0.2, -y+1/4'
   'z+0.35, -x+0.8, y+0.95'
   'y+0.8, z+0.3, x+0.3'
   '-y+0.2, -z+0.9, -x+0.9'
   '-y+1/4, z+0.2, -x+0.85'
   'y+0.95, -z+0.8, x+0.35'
   'y+0.9, -z+0.85, -x+0.95'
   '-y+0.3, z+0.35, x+1/4'
   '-y+0.35, -z+0.95, x+0.2'
   'y+0.85, z+1/4, -x+0.8'
   'y+0.95, x+0.35, -z+0.8'
   '-y+1/4, -x+0.85, z+0.2'
   '-y+0.2, -x+0.9, -z+0.9'
   'y+0.8, x+0.3, z+0.3'
   'y+0.85, -x+0.8, z+1/4'
   '-y+0.35, x+0.2, -z+0.95'
   '-y+0.3, x+1/4, z+0.35'
   'y+0.9, -x+0.95, -z+0.85'
   'x+0.35, z+0.35, -y+0.2'
   '-x+0.85, -z+0.85, y+0.8'
   '-x+0.9, z+1/4, y+0.95'
   'x+0.3, -z+0.95, -y+1/4'
   '-x+0.8, -z+0.9, -y+0.3'
   'x+0.2, z+0.3, y+0.9'
   'x+1/4, -z+0.8, y+0.85'
   '-x+0.95, z+0.2, -y+0.35'
   'z+0.35, y+0.95, -x+0.8'
   '-z+0.85, -y+1/4, x+0.2'
   'z+1/4, -y+0.2, x+1/4'
   '-z+0.95, y+0.8, -x+0.95'
   '-z+0.9, y+0.85, x+0.35'
   'z+0.3, -y+0.35, -x+0.85'
   '-z+0.8, -y+0.3, -x+0.9'
   'z+0.2, y+0.9, x+0.3'
   'x+0.3, y+0.8, z+0.3'
   '-x+0.9, -y+0.2, -z+0.9'
   '-x+0.85, -y+1/4, z+0.2'
   'x+0.35, y+0.95, -z+0.8'
   '-x+0.95, y+0.9, -z+0.85'
   'x+1/4, -y+0.3, z+0.35'
   'x+0.2, -y+0.35, -z+0.95'
   '-x+0.8, y+0.85, z+1/4'
   'z+0.3, x+0.2, y+0.9'
   '-z+0.9, -x+0.8, -y+0.3'
   'z+0.2, -x+0.95, -y+0.35'
   '-z+0.8, x+1/4, y+0.85'
   '-z+0.85, -x+0.85, y+0.8'
   'z+0.35, x+0.35, -y+0.2'
   '-z+0.95, x+0.3, -y+1/4'
   'z+1/4, -x+0.9, y+0.95'
   'y+0.9, z+0.2, x+0.3'
   '-y+0.3, -z+0.8, -x+0.9'
   '-y+0.35, z+0.3, -x+0.85'
   'y+0.85, -z+0.9, x+0.35'
   'y+0.8, -z+0.95, -x+0.95'
   '-y+0.2, z+1/4, x+1/4'
   '-y+1/4, -z+0.85, x+0.2'
   'y+0.95, z+0.35, -x+0.8'
   'y+0.85, x+1/4, -z+0.8'
   '-y+0.35, -x+0.95, z+0.2'
   '-y+0.3, -x+0.8, -z+0.9'
   'y+0.9, x+0.2, z+0.3'
   'y+0.95, -x+0.9, z+1/4'
   '-y+1/4, x+0.3, -z+0.95'
   '-y+0.2, x+0.35, z+0.35'
   'y+0.8, -x+0.85, -z+0.85'
   'x+1/4, z+1/4, -y+0.2'
   '-x+0.95, -z+0.95, y+0.8'
   '-x+0.8, z+0.35, y+0.95'
   'x+0.2, -z+0.85, -y+1/4'
   '-x+0.9, -z+0.8, -y+0.3'
   'x+0.3, z+0.2, y+0.9'
   'x+0.35, -z+0.9, y+0.85'
   '-x+0.85, z+0.3, -y+0.35'
   'z+1/4, y+0.85, -x+0.8'
   '-z+0.95, -y+0.35, x+0.2'
   'z+0.35, -y+0.3, x+1/4'
   '-z+0.85, y+0.9, -x+0.95'
   '-z+0.8, y+0.95, x+0.35'
   'z+0.2, -y+1/4, -x+0.85'
   '-z+0.9, -y+0.2, -x+0.9'
   'z+0.3, y+0.8, x+0.3'
   'x+0.3, y+0.9, z+0.2'
   '-x+0.9, -y+0.3, -z+0.8'
   '-x+0.85, -y+0.35, z+0.3'
   'x+0.35, y+0.85, -z+0.9'
   '-x+0.95, y+0.8, -z+0.95'
   'x+1/4, -y+0.2, z+1/4'
   'x+0.2, -y+1/4, -z+0.85'
   '-x+0.8, y+0.95, z+0.35'
   'z+0.3, x+0.3, y+0.8'
   '-z+0.9, -x+0.9, -y+0.2'
   'z+0.2, -x+0.85, -y+1/4'
   '-z+0.8, x+0.35, y+0.95'
   '-z+0.85, -x+0.95, y+0.9'
   'z+0.35, x+1/4, -y+0.3'
   '-z+0.95, x+0.2, -y+0.35'
   'z+1/4, -x+0.8, y+0.85'
   'y+0.9, z+0.3, x+0.2'
   '-y+0.3, -z+0.9, -x+0.8'
   '-y+0.35, z+0.2, -x+0.95'
   'y+0.85, -z+0.8, x+1/4'
   'y+0.8, -z+0.85, -x+0.85'
   '-y+0.2, z+0.35, x+0.35'
   '-y+1/4, -z+0.95, x+0.3'
   'y+0.95, z+1/4, -x+0.9'
   'y+0.85, x+0.35, -z+0.9'
   '-y+0.35, -x+0.85, z+0.3'
   '-y+0.3, -x+0.9, -z+0.8'
   'y+0.9, x+0.3, z+0.2'
   'y+0.95, -x+0.8, z+0.35'
   '-y+1/4, x+0.2, -z+0.85'
   '-y+0.2, x+1/4, z+1/4'
   'y+0.8, -x+0.95, -z+0.95'
   'x+1/4, z+0.35, -y+0.3'
   '-x+0.95, -z+0.85, y+0.9'
   '-x+0.8, z+1/4, y+0.85'
   'x+0.2, -z+0.95, -y+0.35'
   '-x+0.9, -z+0.9, -y+0.2'
   'x+0.3, z+0.3, y+0.8'
   'x+0.35, -z+0.8, y+0.95'
   '-x+0.85, z+0.2, -y+1/4'
   'z+1/4, y+0.95, -x+0.9'
   '-z+0.95, -y+1/4, x+0.3'
   'z+0.35, -y+0.2, x+0.35'
   '-z+0.85, y+0.8, -x+0.85'
   '-z+0.8, y+0.85, x+1/4'
   'z+0.2, -y+0.35, -x+0.95'
   '-z+0.9, -y+0.3, -x+0.8'
   'z+0.3, y+0.9, x+0.2'
   'x+0.2, y+0.8, z+0.4'
   '-x+0.8, -y+0.2, -z+0.6'
   '-x+0.95, -y+1/4, z+1/2'
   'x+1/4, y+0.95, -z+0.7'
   '-x+0.85, y+0.9, -z+3/4'
   'x+0.35, -y+0.3, z+0.45'
   'x+0.3, -y+0.35, -z+0.65'
   '-x+0.9, y+0.85, z+0.55'
   'z+0.4, x+0.2, y+0.8'
   '-z+0.6, -x+0.8, -y+0.2'
   'z+1/2, -x+0.95, -y+1/4'
   '-z+0.7, x+1/4, y+0.95'
   '-z+3/4, -x+0.85, y+0.9'
   'z+0.45, x+0.35, -y+0.3'
   '-z+0.65, x+0.3, -y+0.35'
   'z+0.55, -x+0.9, y+0.85'
   'y+0.8, z+0.4, x+0.2'
   '-y+0.2, -z+0.6, -x+0.8'
   '-y+1/4, z+1/2, -x+0.95'
   'y+0.95, -z+0.7, x+1/4'
   'y+0.9, -z+3/4, -x+0.85'
   '-y+0.3, z+0.45, x+0.35'
   '-y+0.35, -z+0.65, x+0.3'
   'y+0.85, z+0.55, -x+0.9'
   'y+0.95, x+1/4, -z+0.7'
   '-y+1/4, -x+0.95, z+1/2'
   '-y+0.2, -x+0.8, -z+0.6'
   'y+0.8, x+0.2, z+0.4'
   'y+0.85, -x+0.9, z+0.55'
   '-y+0.35, x+0.3, -z+0.65'
   '-y+0.3, x+0.35, z+0.45'
   'y+0.9, -x+0.85, -z+3/4'
   'x+0.35, z+0.45, -y+0.3'
   '-x+0.85, -z+3/4, y+0.9'
   '-x+0.9, z+0.55, y+0.85'
   'x+0.3, -z+0.65, -y+0.35'
   '-x+0.8, -z+0.6, -y+0.2'
   'x+0.2, z+0.4, y+0.8'
   'x+1/4, -z+0.7, y+0.95'
   '-x+0.95, z+1/2, -y+1/4'
   'z+0.55, y+0.85, -x+0.9'
   '-z+0.65, -y+0.35, x+0.3'
   'z+0.45, -y+0.3, x+0.35'
   '-z+3/4, y+0.9, -x+0.85'
   '-z+0.7, y+0.95, x+1/4'
   'z+1/2, -y+1/4, -x+0.95'
   '-z+0.6, -y+0.2, -x+0.8'
   'z+0.4, y+0.8, x+0.2'
   'x+0.2, y+0.9, z+1/2'
   '-x+0.8, -y+0.3, -z+0.7'
   '-x+0.95, -y+0.35, z+0.4'
   'x+1/4, y+0.85, -z+0.6'
   '-x+0.85, y+0.8, -z+0.65'
   'x+0.35, -y+0.2, z+0.55'
   'x+0.3, -y+1/4, -z+3/4'
   '-x+0.9, y+0.95, z+0.45'
   'z+0.4, x+0.3, y+0.9'
   '-z+0.6, -x+0.9, -y+0.3'
   'z+1/2, -x+0.85, -y+0.35'
   '-z+0.7, x+0.35, y+0.85'
   '-z+3/4, -x+0.95, y+0.8'
   'z+0.45, x+1/4, -y+0.2'
   '-z+0.65, x+0.2, -y+1/4'
   'z+0.55, -x+0.8, y+0.95'
   'y+0.8, z+1/2, x+0.3'
   '-y+0.2, -z+0.7, -x+0.9'
   '-y+1/4, z+0.4, -x+0.85'
   'y+0.95, -z+0.6, x+0.35'
   'y+0.9, -z+0.65, -x+0.95'
   '-y+0.3, z+0.55, x+1/4'
   '-y+0.35, -z+3/4, x+0.2'
   'y+0.85, z+0.45, -x+0.8'
   'y+0.95, x+0.35, -z+0.6'
   '-y+1/4, -x+0.85, z+0.4'
   '-y+0.2, -x+0.9, -z+0.7'
   'y+0.8, x+0.3, z+1/2'
   'y+0.85, -x+0.8, z+0.45'
   '-y+0.35, x+0.2, -z+3/4'
   '-y+0.3, x+1/4, z+0.55'
   'y+0.9, -x+0.95, -z+0.65'
   'x+0.35, z+0.55, -y+0.2'
   '-x+0.85, -z+0.65, y+0.8'
   '-x+0.9, z+0.45, y+0.95'
   'x+0.3, -z+3/4, -y+1/4'
   '-x+0.8, -z+0.7, -y+0.3'
   'x+0.2, z+1/2, y+0.9'
   'x+1/4, -z+0.6, y+0.85'
   '-x+0.95, z+0.4, -y+0.35'
   'z+0.55, y+0.95, -x+0.8'
   '-z+0.65, -y+1/4, x+0.2'
   'z+0.45, -y+0.2, x+1/4'
   '-z+3/4, y+0.8, -x+0.95'
   '-z+0.7, y+0.85, x+0.35'
   'z+1/2, -y+0.35, -x+0.85'
   '-z+0.6, -y+0.3, -x+0.9'
   'z+0.4, y+0.9, x+0.3'
   'x+0.3, y+0.8, z+1/2'
   '-x+0.9, -y+0.2, -z+0.7'
   '-x+0.85, -y+1/4, z+0.4'
   'x+0.35, y+0.95, -z+0.6'
   '-x+0.95, y+0.9, -z+0.65'
   'x+1/4, -y+0.3, z+0.55'
   'x+0.2, -y+0.35, -z+3/4'
   '-x+0.8, y+0.85, z+0.45'
   'z+1/2, x+0.2, y+0.9'
   '-z+0.7, -x+0.8, -y+0.3'
   'z+0.4, -x+0.95, -y+0.35'
   '-z+0.6, x+1/4, y+0.85'
   '-z+0.65, -x+0.85, y+0.8'
   'z+0.55, x+0.35, -y+0.2'
   '-z+3/4, x+0.3, -y+1/4'
   'z+0.45, -x+0.9, y+0.95'
   'y+0.9, z+0.4, x+0.3'
   '-y+0.3, -z+0.6, -x+0.9'
   '-y+0.35, z+1/2, -x+0.85'
   'y+0.85, -z+0.7, x+0.35'
   'y+0.8, -z+3/4, -x+0.95'
   '-y+0.2, z+0.45, x+1/4'
   '-y+1/4, -z+0.65, x+0.2'
   'y+0.95, z+0.55, -x+0.8'
   'y+0.85, x+1/4, -z+0.6'
   '-y+0.35, -x+0.95, z+0.4'
   '-y+0.3, -x+0.8, -z+0.7'
   'y+0.9, x+0.2, z+1/2'
   'y+0.95, -x+0.9, z+0.45'
   '-y+1/4, x+0.3, -z+3/4'
   '-y+0.2, x+0.35, z+0.55'
   'y+0.8, -x+0.85, -z+0.65'
   'x+1/4, z+0.45, -y+0.2'
   '-x+0.95, -z+3/4, y+0.8'
   '-x+0.8, z+0.55, y+0.95'
   'x+0.2, -z+0.65, -y+1/4'
   '-x+0.9, -z+0.6, -y+0.3'
   'x+0.3, z+0.4, y+0.9'
   'x+0.35, -z+0.7, y+0.85'
   '-x+0.85, z+1/2, -y+0.35'
   'z+0.45, y+0.85, -x+0.8'
   '-z+3/4, -y+0.35, x+0.2'
   'z+0.55, -y+0.3, x+1/4'
   '-z+0.65, y+0.9, -x+0.95'
   '-z+0.6, y+0.95, x+0.35'
   'z+0.4, -y+1/4, -x+0.85'
   '-z+0.7, -y+0.2, -x+0.9'
   'z+1/2, y+0.8, x+0.3'
   'x+0.3, y+0.9, z+0.4'
   '-x+0.9, -y+0.3, -z+0.6'
   '-x+0.85, -y+0.35, z+1/2'
   'x+0.35, y+0.85, -z+0.7'
   '-x+0.95, y+0.8, -z+3/4'
   'x+1/4, -y+0.2, z+0.45'
   'x+0.2, -y+1/4, -z+0.65'
   '-x+0.8, y+0.95, z+0.55'
   'z+1/2, x+0.3, y+0.8'
   '-z+0.7, -x+0.9, -y+0.2'
   'z+0.4, -x+0.85, -y+1/4'
   '-z+0.6, x+0.35, y+0.95'
   '-z+0.65, -x+0.95, y+0.9'
   'z+0.55, x+1/4, -y+0.3'
   '-z+3/4, x+0.2, -y+0.35'
   'z+0.45, -x+0.8, y+0.85'
   'y+0.9, z+1/2, x+0.2'
   '-y+0.3, -z+0.7, -x+0.8'
   '-y+0.35, z+0.4, -x+0.95'
   'y+0.85, -z+0.6, x+1/4'
   'y+0.8, -z+0.65, -x+0.85'
   '-y+0.2, z+0.55, x+0.35'
   '-y+1/4, -z+3/4, x+0.3'
   'y+0.95, z+0.45, -x+0.9'
   'y+0.85, x+0.35, -z+0.7'
   '-y+0.35, -x+0.85, z+1/2'
   '-y+0.3, -x+0.9, -z+0.6'
   'y+0.9, x+0.3, z+0.4'
   'y+0.95, -x+0.8, z+0.55'
   '-y+1/4, x+0.2, -z+0.65'
   '-y+0.2, x+1/4, z+0.45'
   'y+0.8, -x+0.95, -z+3/4'
   'x+1/4, z+0.55, -y+0.3'
   '-x+0.95, -z+0.65, y+0.9'
   '-x+0.8, z+0.45, y+0.85'
   'x+0.2, -z+3/4, -y+0.35'
   '-x+0.9, -z+0.7, -y+0.2'
   'x+0.3, z+1/2, y+0.8'
   'x+0.35, -z+0.6, y+0.95'
   '-x+0.85, z+0.4, -y+1/4'
   'z+0.45, y+0.95, -x+0.9'
   '-z+3/4, -y+1/4, x+0.3'
   'z+0.55, -y+0.2, x+0.35'
   '-z+0.65, y+0.8, -x+0.85'
   '-z+0.6, y+0.85, x+1/4'
   'z+0.4, -y+0.35, -x+0.95'
   '-z+0.7, -y+0.3, -x+0.8'
   'z+1/2, y+0.9, x+0.2'
   'x+0.2, y+0.8, z+0.6'
   '-x+0.8, -y+0.2, -z+0.4'
   '-x+0.95, -y+1/4, z+0.7'
   'x+1/4, y+0.95, -z+1/2'
   '-x+0.85, y+0.9, -z+0.55'
   'x+0.35, -y+0.3, z+0.65'
   'x+0.3, -y+0.35, -z+0.45'
   '-x+0.9, y+0.85, z+3/4'
   'z+0.6, x+0.2, y+0.8'
   '-z+0.4, -x+0.8, -y+0.2'
   'z+0.7, -x+0.95, -y+1/4'
   '-z+1/2, x+1/4, y+0.95'
   '-z+0.55, -x+0.85, y+0.9'
   'z+0.65, x+0.35, -y+0.3'
   '-z+0.45, x+0.3, -y+0.35'
   'z+3/4, -x+0.9, y+0.85'
   'y+0.8, z+0.6, x+0.2'
   '-y+0.2, -z+0.4, -x+0.8'
   '-y+1/4, z+0.7, -x+0.95'
   'y+0.95, -z+1/2, x+1/4'
   'y+0.9, -z+0.55, -x+0.85'
   '-y+0.3, z+0.65, x+0.35'
   '-y+0.35, -z+0.45, x+0.3'
   'y+0.85, z+3/4, -x+0.9'
   'y+0.95, x+1/4, -z+1/2'
   '-y+1/4, -x+0.95, z+0.7'
   '-y+0.2, -x+0.8, -z+0.4'
   'y+0.8, x+0.2, z+0.6'
   'y+0.85, -x+0.9, z+3/4'
   '-y+0.35, x+0.3, -z+0.45'
   '-y+0.3, x+0.35, z+0.65'
   'y+0.9, -x+0.85, -z+0.55'
   'x+0.35, z+0.65, -y+0.3'
   '-x+0.85, -z+0.55, y+0.9'
   '-x+0.9, z+3/4, y+0.85'
   'x+0.3, -z+0.45, -y+0.35'
   '-x+0.8, -z+0.4, -y+0.2'
   'x+0.2, z+0.6, y+0.8'
   'x+1/4, -z+1/2, y+0.95'
   '-x+0.95, z+0.7, -y+1/4'
   'z+3/4, y+0.85, -x+0.9'
   '-z+0.45, -y+0.35, x+0.3'
   'z+0.65, -y+0.3, x+0.35'
   '-z+0.55, y+0.9, -x+0.85'
   '-z+1/2, y+0.95, x+1/4'
   'z+0.7, -y+1/4, -x+0.95'
   '-z+0.4, -y+0.2, -x+0.8'
   'z+0.6, y+0.8, x+0.2'
   'x+0.2, y+0.9, z+0.7'
   '-x+0.8, -y+0.3, -z+1/2'
   '-x+0.95, -y+0.35, z+0.6'
   'x+1/4, y+0.85, -z+0.4'
   '-x+0.85, y+0.8, -z+0.45'
   'x+0.35, -y+0.2, z+3/4'
   'x+0.3, -y+1/4, -z+0.55'
   '-x+0.9, y+0.95, z+0.65'
   'z+0.6, x+0.3, y+0.9'
   '-z+0.4, -x+0.9, -y+0.3'
   'z+0.7, -x+0.85, -y+0.35'
   '-z+1/2, x+0.35, y+0.85'
   '-z+0.55, -x+0.95, y+0.8'
   'z+0.65, x+1/4, -y+0.2'
   '-z+0.45, x+0.2, -y+1/4'
   'z+3/4, -x+0.8, y+0.95'
   'y+0.8, z+0.7, x+0.3'
   '-y+0.2, -z+1/2, -x+0.9'
   '-y+1/4, z+0.6, -x+0.85'
   'y+0.95, -z+0.4, x+0.35'
   'y+0.9, -z+0.45, -x+0.95'
   '-y+0.3, z+3/4, x+1/4'
   '-y+0.35, -z+0.55, x+0.2'
   'y+0.85, z+0.65, -x+0.8'
   'y+0.95, x+0.35, -z+0.4'
   '-y+1/4, -x+0.85, z+0.6'
   '-y+0.2, -x+0.9, -z+1/2'
   'y+0.8, x+0.3, z+0.7'
   'y+0.85, -x+0.8, z+0.65'
   '-y+0.35, x+0.2, -z+0.55'
   '-y+0.3, x+1/4, z+3/4'
   'y+0.9, -x+0.95, -z+0.45'
   'x+0.35, z+3/4, -y+0.2'
   '-x+0.85, -z+0.45, y+0.8'
   '-x+0.9, z+0.65, y+0.95'
   'x+0.3, -z+0.55, -y+1/4'
   '-x+0.8, -z+1/2, -y+0.3'
   'x+0.2, z+0.7, y+0.9'
   'x+1/4, -z+0.4, y+0.85'
   '-x+0.95, z+0.6, -y+0.35'
   'z+3/4, y+0.95, -x+0.8'
   '-z+0.45, -y+1/4, x+0.2'
   'z+0.65, -y+0.2, x+1/4'
   '-z+0.55, y+0.8, -x+0.95'
   '-z+1/2, y+0.85, x+0.35'
   'z+0.7, -y+0.35, -x+0.85'
   '-z+0.4, -y+0.3, -x+0.9'
   'z+0.6, y+0.9, x+0.3'
   'x+0.3, y+0.8, z+0.7'
   '-x+0.9, -y+0.2, -z+1/2'
   '-x+0.85, -y+1/4, z+0.6'
   'x+0.35, y+0.95, -z+0.4'
   '-x+0.95, y+0.9, -z+0.45'
   'x+1/4, -y+0.3, z+3/4'
   'x+0.2, -y+0.35, -z+0.55'
   '-x+0.8, y+0.85, z+0.65'
   'z+0.7, x+0.2, y+0.9'
   '-z+1/2, -x+0.8, -y+0.3'
   'z+0.6, -x+0.95, -y+0.35'
   '-z+0.4, x+1/4, y+0.85'
   '-z+0.45, -x+0.85, y+0.8'
   'z+3/4, x+0.35, -y+0.2'
   '-z+0.55, x+0.3, -y+1/4'
   'z+0.65, -x+0.9, y+0.95'
   'y+0.9, z+0.6, x+0.3'
   '-y+0.3, -z+0.4, -x+0.9'
   '-y+0.35, z+0.7, -x+0.85'
   'y+0.85, -z+1/2, x+0.35'
   'y+0.8, -z+0.55, -x+0.95'
   '-y+0.2, z+0.65, x+1/4'
   '-y+1/4, -z+0.45, x+0.2'
   'y+0.95, z+3/4, -x+0.8'
   'y+0.85, x+1/4, -z+0.4'
   '-y+0.35, -x+0.95, z+0.6'
   '-y+0.3, -x+0.8, -z+1/2'
   'y+0.9, x+0.2, z+0.7'
   'y+0.95, -x+0.9, z+0.65'
   '-y+1/4, x+0.3, -z+0.55'
   '-y+0.2, x+0.35, z+3/4'
   'y+0.8, -x+0.85, -z+0.45'
   'x+1/4, z+0.65, -y+0.2'
   '-x+0.95, -z+0.55, y+0.8'
   '-x+0.8, z+3/4, y+0.95'
   'x+0.2, -z+0.45, -y+1/4'
   '-x+0.9, -z+0.4, -y+0.3'
   'x+0.3, z+0.6, y+0.9'
   'x+0.35, -z+1/2, y+0.85'
   '-x+0.85, z+0.7, -y+0.35'
   'z+0.65, y+0.85, -x+0.8'
   '-z+0.55, -y+0.35, x+0.2'
   'z+3/4, -y+0.3, x+1/4'
   '-z+0.45, y+0.9, -x+0.95'
   '-z+0.4, y+0.95, x+0.35'
   'z+0.6, -y+1/4, -x+0.85'
   '-z+1/2, -y+0.2, -x+0.9'
   'z+0.7, y+0.8, x+0.3'
   'x+0.3, y+0.9, z+0.6'
   '-x+0.9, -y+0.3, -z+0.4'
   '-x+0.85, -y+0.35, z+0.7'
   'x+0.35, y+0.85, -z+1/2'
   '-x+0.95, y+0.8, -z+0.55'
   'x+1/4, -y+0.2, z+0.65'
   'x+0.2, -y+1/4, -z+0.45'
   '-x+0.8, y+0.95, z+3/4'
   'z+0.7, x+0.3, y+0.8'
   '-z+1/2, -x+0.9, -y+0.2'
   'z+0.6, -x+0.85, -y+1/4'
   '-z+0.4, x+0.35, y+0.95'
   '-z+0.45, -x+0.95, y+0.9'
   'z+3/4, x+1/4, -y+0.3'
   '-z+0.55, x+0.2, -y+0.35'
   'z+0.65, -x+0.8, y+0.85'
   'y+0.9, z+0.7, x+0.2'
   '-y+0.3, -z+1/2, -x+0.8'
   '-y+0.35, z+0.6, -x+0.95'
   'y+0.85, -z+0.4, x+1/4'
   'y+0.8, -z+0.45, -x+0.85'
   '-y+0.2, z+3/4, x+0.35'
   '-y+1/4, -z+0.55, x+0.3'
   'y+0.95, z+0.65, -x+0.9'
   'y+0.85, x+0.35, -z+1/2'
   '-y+0.35, -x+0.85, z+0.7'
   '-y+0.3, -x+0.9, -z+0.4'
   'y+0.9, x+0.3, z+0.6'
   'y+0.95, -x+0.8, z+3/4'
   '-y+1/4, x+0.2, -z+0.45'
   '-y+0.2, x+1/4, z+0.65'
   'y+0.8, -x+0.95, -z+0.55'
   'x+1/4, z+3/4, -y+0.3'
   '-x+0.95, -z+0.45, y+0.9'
   '-x+0.8, z+0.65, y+0.85'
   'x+0.2, -z+0.55, -y+0.35'
   '-x+0.9, -z+1/2, -y+0.2'
   'x+0.3, z+0.7, y+0.8'
   'x+0.35, -z+0.4, y+0.95'
   '-x+0.85, z+0.6, -y+1/4'
   'z+0.65, y+0.95, -x+0.9'
   '-z+0.55, -y+1/4, x+0.3'
   'z+3/4, -y+0.2, x+0.35'
   '-z+0.45, y+0.8, -x+0.85'
   '-z+0.4, y+0.85, x+1/4'
   'z+0.6, -y+0.35, -x+0.95'
   '-z+1/2, -y+0.3, -x+0.8'
   'z+0.7, y+0.9, x+0.2'
   'x+0.2, y+0.8, z+0.8'
   '-x+0.8, -y+0.2, -z+0.2'
   '-x+0.95, -y+1/4, z+0.9'
   'x+1/4, y+0.95, -z+0.3'
   '-x+0.85, y+0.9, -z+0.35'
   'x+0.35, -y+0.3, z+0.85'
   'x+0.3, -y+0.35, -z+1/4'
   '-x+0.9, y+0.85, z+0.95'
   'z+0.8, x+0.2, y+0.8'
   '-z+0.2, -x+0.8, -y+0.2'
   'z+0.9, -x+0.95, -y+1/4'
   '-z+0.3, x+1/4, y+0.95'
   '-z+0.35, -x+0.85, y+0.9'
   'z+0.85, x+0.35, -y+0.3'
   '-z+1/4, x+0.3, -y+0.35'
   'z+0.95, -x+0.9, y+0.85'
   'y+0.8, z+0.8, x+0.2'
   '-y+0.2, -z+0.2, -x+0.8'
   '-y+1/4, z+0.9, -x+0.95'
   'y+0.95, -z+0.3, x+1/4'
   'y+0.9, -z+0.35, -x+0.85'
   '-y+0.3, z+0.85, x+0.35'
   '-y+0.35, -z+1/4, x+0.3'
   'y+0.85, z+0.95, -x+0.9'
   'y+0.95, x+1/4, -z+0.3'
   '-y+1/4, -x+0.95, z+0.9'
   '-y+0.2, -x+0.8, -z+0.2'
   'y+0.8, x+0.2, z+0.8'
   'y+0.85, -x+0.9, z+0.95'
   '-y+0.35, x+0.3, -z+1/4'
   '-y+0.3, x+0.35, z+0.85'
   'y+0.9, -x+0.85, -z+0.35'
   'x+0.35, z+0.85, -y+0.3'
   '-x+0.85, -z+0.35, y+0.9'
   '-x+0.9, z+0.95, y+0.85'
   'x+0.3, -z+1/4, -y+0.35'
   '-x+0.8, -z+0.2, -y+0.2'
   'x+0.2, z+0.8, y+0.8'
   'x+1/4, -z+0.3, y+0.95'
   '-x+0.95, z+0.9, -y+1/4'
   'z+0.95, y+0.85, -x+0.9'
   '-z+1/4, -y+0.35, x+0.3'
   'z+0.85, -y+0.3, x+0.35'
   '-z+0.35, y+0.9, -x+0.85'
   '-z+0.3, y+0.95, x+1/4'
   'z+0.9, -y+1/4, -x+0.95'
   '-z+0.2, -y+0.2, -x+0.8'
   'z+0.8, y+0.8, x+0.2'
   'x+0.2, y+0.9, z+0.9'
   '-x+0.8, -y+0.3, -z+0.3'
   '-x+0.95, -y+0.35, z+0.8'
   'x+1/4, y+0.85, -z+0.2'
   '-x+0.85, y+0.8, -z+1/4'
   'x+0.35, -y+0.2, z+0.95'
   'x+0.3, -y+1/4, -z+0.35'
   '-x+0.9, y+0.95, z+0.85'
   'z+0.8, x+0.3, y+0.9'
   '-z+0.2, -x+0.9, -y+0.3'
   'z+0.9, -x+0.85, -y+0.35'
   '-z+0.3, x+0.35, y+0.85'
   '-z+0.35, -x+0.95, y+0.8'
   'z+0.85, x+1/4, -y+0.2'
   '-z+1/4, x+0.2, -y+1/4'
   'z+0.95, -x+0.8, y+0.95'
   'y+0.8, z+0.9, x+0.3'
   '-y+0.2, -z+0.3, -x+0.9'
   '-y+1/4, z+0.8, -x+0.85'
   'y+0.95, -z+0.2, x+0.35'
   'y+0.9, -z+1/4, -x+0.95'
   '-y+0.3, z+0.95, x+1/4'
   '-y+0.35, -z+0.35, x+0.2'
   'y+0.85, z+0.85, -x+0.8'
   'y+0.95, x+0.35, -z+0.2'
   '-y+1/4, -x+0.85, z+0.8'
   '-y+0.2, -x+0.9, -z+0.3'
   'y+0.8, x+0.3, z+0.9'
   'y+0.85, -x+0.8, z+0.85'
   '-y+0.35, x+0.2, -z+0.35'
   '-y+0.3, x+1/4, z+0.95'
   'y+0.9, -x+0.95, -z+1/4'
   'x+0.35, z+0.95, -y+0.2'
   '-x+0.85, -z+1/4, y+0.8'
   '-x+0.9, z+0.85, y+0.95'
   'x+0.3, -z+0.35, -y+1/4'
   '-x+0.8, -z+0.3, -y+0.3'
   'x+0.2, z+0.9, y+0.9'
   'x+1/4, -z+0.2, y+0.85'
   '-x+0.95, z+0.8, -y+0.35'
   'z+0.95, y+0.95, -x+0.8'
   '-z+1/4, -y+1/4, x+0.2'
   'z+0.85, -y+0.2, x+1/4'
   '-z+0.35, y+0.8, -x+0.95'
   '-z+0.3, y+0.85, x+0.35'
   'z+0.9, -y+0.35, -x+0.85'
   '-z+0.2, -y+0.3, -x+0.9'
   'z+0.8, y+0.9, x+0.3'
   'x+0.3, y+0.8, z+0.9'
   '-x+0.9, -y+0.2, -z+0.3'
   '-x+0.85, -y+1/4, z+0.8'
   'x+0.35, y+0.95, -z+0.2'
   '-x+0.95, y+0.9, -z+1/4'
   'x+1/4, -y+0.3, z+0.95'
   'x+0.2, -y+0.35, -z+0.35'
   '-x+0.8, y+0.85, z+0.85'
   'z+0.9, x+0.2, y+0.9'
   '-z+0.3, -x+0.8, -y+0.3'
   'z+0.8, -x+0.95, -y+0.35'
   '-z+0.2, x+1/4, y+0.85'
   '-z+1/4, -x+0.85, y+0.8'
   'z+0.95, x+0.35, -y+0.2'
   '-z+0.35, x+0.3, -y+1/4'
   'z+0.85, -x+0.9, y+0.95'
   'y+0.9, z+0.8, x+0.3'
   '-y+0.3, -z+0.2, -x+0.9'
   '-y+0.35, z+0.9, -x+0.85'
   'y+0.85, -z+0.3, x+0.35'
   'y+0.8, -z+0.35, -x+0.95'
   '-y+0.2, z+0.85, x+1/4'
   '-y+1/4, -z+1/4, x+0.2'
   'y+0.95, z+0.95, -x+0.8'
   'y+0.85, x+1/4, -z+0.2'
   '-y+0.35, -x+0.95, z+0.8'
   '-y+0.3, -x+0.8, -z+0.3'
   'y+0.9, x+0.2, z+0.9'
   'y+0.95, -x+0.9, z+0.85'
   '-y+1/4, x+0.3, -z+0.35'
   '-y+0.2, x+0.35, z+0.95'
   'y+0.8, -x+0.85, -z+1/4'
   'x+1/4, z+0.85, -y+0.2'
   '-x+0.95, -z+0.35, y+0.8'
   '-x+0.8, z+0.95, y+0.95'
   'x+0.2, -z+1/4, -y+1/4'
   '-x+0.9, -z+0.2, -y+0.3'
   'x+0.3, z+0.8, y+0.9'
   'x+0.35, -z+0.3, y+0.85'
   '-x+0.85, z+0.9, -y+0.35'
   'z+0.85, y+0.85, -x+0.8'
   '-z+0.35, -y+0.35, x+0.2'
   'z+0.95, -y+0.3, x+1/4'
   '-z+1/4, y+0.9, -x+0.95'
   '-z+0.2, y+0.95, x+0.35'
   'z+0.8, -y+1/4, -x+0.85'
   '-z+0.3, -y+0.2, -x+0.9'
   'z+0.9, y+0.8, x+0.3'
   'x+0.3, y+0.9, z+0.8'
   '-x+0.9, -y+0.3, -z+0.2'
   '-x+0.85, -y+0.35, z+0.9'
   'x+0.35, y+0.85, -z+0.3'
   '-x+0.95, y+0.8, -z+0.35'
   'x+1/4, -y+0.2, z+0.85'
   'x+0.2, -y+1/4, -z+1/4'
   '-x+0.8, y+0.95, z+0.95'
   'z+0.9, x+0.3, y+0.8'
   '-z+0.3, -x+0.9, -y+0.2'
   'z+0.8, -x+0.85, -y+1/4'
   '-z+0.2, x+0.35, y+0.95'
   '-z+1/4, -x+0.95, y+0.9'
   'z+0.95, x+1/4, -y+0.3'
   '-z+0.35, x+0.2, -y+0.35'
   'z+0.85, -x+0.8, y+0.85'
   'y+0.9, z+0.9, x+0.2'
   '-y+0.3, -z+0.3, -x+0.8'
   '-y+0.35, z+0.8, -x+0.95'
   'y+0.85, -z+0.2, x+1/4'
   'y+0.8, -z+1/4, -x+0.85'
   '-y+0.2, z+0.95, x+0.35'
   '-y+1/4, -z+0.35, x+0.3'
   'y+0.95, z+0.85, -x+0.9'
   'y+0.85, x+0.35, -z+0.3'
   '-y+0.35, -x+0.85, z+0.9'
   '-y+0.3, -x+0.9, -z+0.2'
   'y+0.9, x+0.3, z+0.8'
   'y+0.95, -x+0.8, z+0.95'
   '-y+1/4, x+0.2, -z+1/4'
   '-y+0.2, x+1/4, z+0.85'
   'y+0.8, -x+0.95, -z+0.35'
   'x+1/4, z+0.95, -y+0.3'
   '-x+0.95, -z+1/4, y+0.9'
   '-x+0.8, z+0.85, y+0.85'
   'x+0.2, -z+0.35, -y+0.35'
   '-x+0.9, -z+0.3, -y+0.2'
   'x+0.3, z+0.9, y+0.8'
   'x+0.35, -z+0.2, y+0.95'
   '-x+0.85, z+0.8, -y+1/4'
   'z+0.85, y+0.95, -x+0.9'
   '-z+0.35, -y+1/4, x+0.3'
   'z+0.95, -y+0.2, x+0.35'
   '-z+1/4, y+0.8, -x+0.85'
   '-z+0.2, y+0.85, x+1/4'
   'z+0.8, -y+0.35, -x+0.95'
   '-z+0.3, -y+0.3, -x+0.8'
   'z+0.9, y+0.9, x+0.2'
   'x+0.4, y, z'
   '-x+0.6, -y, -z'
   '-x+3/4, -y+0.05, z+0.1'
   'x+0.45, y+0.15, -z+0.1'
   '-x+0.65, y+0.1, -z+0.15'
   'x+0.55, -y+0.1, z+0.05'
   'x+1/2, -y+0.15, -z+0.05'
   '-x+0.7, y+0.05, z+0.15'
   'z, x+0.4, y'
   '-z, -x+0.6, -y'
   'z+0.1, -x+3/4, -y+0.05'
   '-z+0.1, x+0.45, y+0.15'
   '-z+0.15, -x+0.65, y+0.1'
   'z+0.05, x+0.55, -y+0.1'
   '-z+0.05, x+1/2, -y+0.15'
   'z+0.15, -x+0.7, y+0.05'
   'y, z, x+0.4'
   '-y, -z, -x+0.6'
   '-y+0.05, z+0.1, -x+3/4'
   'y+0.15, -z+0.1, x+0.45'
   'y+0.1, -z+0.15, -x+0.65'
   '-y+0.1, z+0.05, x+0.55'
   '-y+0.15, -z+0.05, x+1/2'
   'y+0.05, z+0.15, -x+0.7'
   'y+0.15, x+0.45, -z+0.1'
   '-y+0.05, -x+3/4, z+0.1'
   '-y, -x+0.6, -z'
   'y, x+0.4, z'
   'y+0.05, -x+0.7, z+0.15'
   '-y+0.15, x+1/2, -z+0.05'
   '-y+0.1, x+0.55, z+0.05'
   'y+0.1, -x+0.65, -z+0.15'
   'x+0.55, z+0.05, -y+0.1'
   '-x+0.65, -z+0.15, y+0.1'
   '-x+0.7, z+0.15, y+0.05'
   'x+1/2, -z+0.05, -y+0.15'
   '-x+0.6, -z, -y'
   'x+0.4, z, y'
   'x+0.45, -z+0.1, y+0.15'
   '-x+3/4, z+0.1, -y+0.05'
   'z+0.15, y+0.05, -x+0.7'
   '-z+0.05, -y+0.15, x+1/2'
   'z+0.05, -y+0.1, x+0.55'
   '-z+0.15, y+0.1, -x+0.65'
   '-z+0.1, y+0.15, x+0.45'
   'z+0.1, -y+0.05, -x+3/4'
   '-z, -y, -x+0.6'
   'z, y, x+0.4'
   'x+0.4, y+0.1, z+0.1'
   '-x+0.6, -y+0.1, -z+0.1'
   '-x+3/4, -y+0.15, z'
   'x+0.45, y+0.05, -z'
   '-x+0.65, y, -z+0.05'
   'x+0.55, -y, z+0.15'
   'x+1/2, -y+0.05, -z+0.15'
   '-x+0.7, y+0.15, z+0.05'
   'z, x+1/2, y+0.1'
   '-z, -x+0.7, -y+0.1'
   'z+0.1, -x+0.65, -y+0.15'
   '-z+0.1, x+0.55, y+0.05'
   '-z+0.15, -x+3/4, y'
   'z+0.05, x+0.45, -y'
   '-z+0.05, x+0.4, -y+0.05'
   'z+0.15, -x+0.6, y+0.15'
   'y, z+0.1, x+1/2'
   '-y, -z+0.1, -x+0.7'
   '-y+0.05, z, -x+0.65'
   'y+0.15, -z, x+0.55'
   'y+0.1, -z+0.05, -x+3/4'
   '-y+0.1, z+0.15, x+0.45'
   '-y+0.15, -z+0.15, x+0.4'
   'y+0.05, z+0.05, -x+0.6'
   'y+0.15, x+0.55, -z'
   '-y+0.05, -x+0.65, z'
   '-y, -x+0.7, -z+0.1'
   'y, x+1/2, z+0.1'
   'y+0.05, -x+0.6, z+0.05'
   '-y+0.15, x+0.4, -z+0.15'
   '-y+0.1, x+0.45, z+0.15'
   'y+0.1, -x+3/4, -z+0.05'
   'x+0.55, z+0.15, -y'
   '-x+0.65, -z+0.05, y'
   '-x+0.7, z+0.05, y+0.15'
   'x+1/2, -z+0.15, -y+0.05'
   '-x+0.6, -z+0.1, -y+0.1'
   'x+0.4, z+0.1, y+0.1'
   'x+0.45, -z, y+0.05'
   '-x+3/4, z, -y+0.15'
   'z+0.15, y+0.15, -x+0.6'
   '-z+0.05, -y+0.05, x+0.4'
   'z+0.05, -y, x+0.45'
   '-z+0.15, y, -x+3/4'
   '-z+0.1, y+0.05, x+0.55'
   'z+0.1, -y+0.15, -x+0.65'
   '-z, -y+0.1, -x+0.7'
   'z, y+0.1, x+1/2'
   'x+1/2, y, z+0.1'
   '-x+0.7, -y, -z+0.1'
   '-x+0.65, -y+0.05, z'
   'x+0.55, y+0.15, -z'
   '-x+3/4, y+0.1, -z+0.05'
   'x+0.45, -y+0.1, z+0.15'
   'x+0.4, -y+0.15, -z+0.15'
   '-x+0.6, y+0.05, z+0.05'
   'z+0.1, x+0.4, y+0.1'
   '-z+0.1, -x+0.6, -y+0.1'
   'z, -x+3/4, -y+0.15'
   '-z, x+0.45, y+0.05'
   '-z+0.05, -x+0.65, y'
   'z+0.15, x+0.55, -y'
   '-z+0.15, x+1/2, -y+0.05'
   'z+0.05, -x+0.7, y+0.15'
   'y+0.1, z, x+1/2'
   '-y+0.1, -z, -x+0.7'
   '-y+0.15, z+0.1, -x+0.65'
   'y+0.05, -z+0.1, x+0.55'
   'y, -z+0.15, -x+3/4'
   '-y, z+0.05, x+0.45'
   '-y+0.05, -z+0.05, x+0.4'
   'y+0.15, z+0.15, -x+0.6'
   'y+0.05, x+0.45, -z'
   '-y+0.15, -x+3/4, z'
   '-y+0.1, -x+0.6, -z+0.1'
   'y+0.1, x+0.4, z+0.1'
   'y+0.15, -x+0.7, z+0.05'
   '-y+0.05, x+1/2, -z+0.15'
   '-y, x+0.55, z+0.15'
   'y, -x+0.65, -z+0.05'
   'x+0.45, z+0.05, -y'
   '-x+3/4, -z+0.15, y'
   '-x+0.6, z+0.15, y+0.15'
   'x+0.4, -z+0.05, -y+0.05'
   '-x+0.7, -z, -y+0.1'
   'x+1/2, z, y+0.1'
   'x+0.55, -z+0.1, y+0.05'
   '-x+0.65, z+0.1, -y+0.15'
   'z+0.05, y+0.05, -x+0.6'
   '-z+0.15, -y+0.15, x+0.4'
   'z+0.15, -y+0.1, x+0.45'
   '-z+0.05, y+0.1, -x+3/4'
   '-z, y+0.15, x+0.55'
   'z, -y+0.05, -x+0.65'
   '-z+0.1, -y, -x+0.7'
   'z+0.1, y, x+1/2'
   'x+1/2, y+0.1, z'
   '-x+0.7, -y+0.1, -z'
   '-x+0.65, -y+0.15, z+0.1'
   'x+0.55, y+0.05, -z+0.1'
   '-x+3/4, y, -z+0.15'
   'x+0.45, -y, z+0.05'
   'x+0.4, -y+0.05, -z+0.05'
   '-x+0.6, y+0.15, z+0.15'
   'z+0.1, x+1/2, y'
   '-z+0.1, -x+0.7, -y'
   'z, -x+0.65, -y+0.05'
   '-z, x+0.55, y+0.15'
   '-z+0.05, -x+3/4, y+0.1'
   'z+0.15, x+0.45, -y+0.1'
   '-z+0.15, x+0.4, -y+0.15'
   'z+0.05, -x+0.6, y+0.05'
   'y+0.1, z+0.1, x+0.4'
   '-y+0.1, -z+0.1, -x+0.6'
   '-y+0.15, z, -x+3/4'
   'y+0.05, -z, x+0.45'
   'y, -z+0.05, -x+0.65'
   '-y, z+0.15, x+0.55'
   '-y+0.05, -z+0.15, x+1/2'
   'y+0.15, z+0.05, -x+0.7'
   'y+0.05, x+0.55, -z+0.1'
   '-y+0.15, -x+0.65, z+0.1'
   '-y+0.1, -x+0.7, -z'
   'y+0.1, x+1/2, z'
   'y+0.15, -x+0.6, z+0.15'
   '-y+0.05, x+0.4, -z+0.05'
   '-y, x+0.45, z+0.05'
   'y, -x+3/4, -z+0.15'
   'x+0.45, z+0.15, -y+0.1'
   '-x+3/4, -z+0.05, y+0.1'
   '-x+0.6, z+0.05, y+0.05'
   'x+0.4, -z+0.15, -y+0.15'
   '-x+0.7, -z+0.1, -y'
   'x+1/2, z+0.1, y'
   'x+0.55, -z, y+0.15'
   '-x+0.65, z, -y+0.05'
   'z+0.05, y+0.15, -x+0.7'
   '-z+0.15, -y+0.05, x+1/2'
   'z+0.15, -y, x+0.55'
   '-z+0.05, y, -x+0.65'
   '-z, y+0.05, x+0.45'
   'z, -y+0.15, -x+3/4'
   '-z+0.1, -y+0.1, -x+0.6'
   'z+0.1, y+0.1, x+0.4'
   'x+0.4, y, z+0.2'
   '-x+0.6, -y, -z+0.8'
   '-x+3/4, -y+0.05, z+0.3'
   'x+0.45, y+0.15, -z+0.9'
   '-x+0.65, y+0.1, -z+0.95'
   'x+0.55, -y+0.1, z+1/4'
   'x+1/2, -y+0.15, -z+0.85'
   '-x+0.7, y+0.05, z+0.35'
   'z+0.2, x+0.4, y'
   '-z+0.8, -x+0.6, -y'
   'z+0.3, -x+3/4, -y+0.05'
   '-z+0.9, x+0.45, y+0.15'
   '-z+0.95, -x+0.65, y+0.1'
   'z+1/4, x+0.55, -y+0.1'
   '-z+0.85, x+1/2, -y+0.15'
   'z+0.35, -x+0.7, y+0.05'
   'y, z+0.2, x+0.4'
   '-y, -z+0.8, -x+0.6'
   '-y+0.05, z+0.3, -x+3/4'
   'y+0.15, -z+0.9, x+0.45'
   'y+0.1, -z+0.95, -x+0.65'
   '-y+0.1, z+1/4, x+0.55'
   '-y+0.15, -z+0.85, x+1/2'
   'y+0.05, z+0.35, -x+0.7'
   'y+0.15, x+0.45, -z+0.9'
   '-y+0.05, -x+3/4, z+0.3'
   '-y, -x+0.6, -z+0.8'
   'y, x+0.4, z+0.2'
   'y+0.05, -x+0.7, z+0.35'
   '-y+0.15, x+1/2, -z+0.85'
   '-y+0.1, x+0.55, z+1/4'
   'y+0.1, -x+0.65, -z+0.95'
   'x+0.55, z+1/4, -y+0.1'
   '-x+0.65, -z+0.95, y+0.1'
   '-x+0.7, z+0.35, y+0.05'
   'x+1/2, -z+0.85, -y+0.15'
   '-x+0.6, -z+0.8, -y'
   'x+0.4, z+0.2, y'
   'x+0.45, -z+0.9, y+0.15'
   '-x+3/4, z+0.3, -y+0.05'
   'z+0.35, y+0.05, -x+0.7'
   '-z+0.85, -y+0.15, x+1/2'
   'z+1/4, -y+0.1, x+0.55'
   '-z+0.95, y+0.1, -x+0.65'
   '-z+0.9, y+0.15, x+0.45'
   'z+0.3, -y+0.05, -x+3/4'
   '-z+0.8, -y, -x+0.6'
   'z+0.2, y, x+0.4'
   'x+0.4, y+0.1, z+0.3'
   '-x+0.6, -y+0.1, -z+0.9'
   '-x+3/4, -y+0.15, z+0.2'
   'x+0.45, y+0.05, -z+0.8'
   '-x+0.65, y, -z+0.85'
   'x+0.55, -y, z+0.35'
   'x+1/2, -y+0.05, -z+0.95'
   '-x+0.7, y+0.15, z+1/4'
   'z+0.2, x+1/2, y+0.1'
   '-z+0.8, -x+0.7, -y+0.1'
   'z+0.3, -x+0.65, -y+0.15'
   '-z+0.9, x+0.55, y+0.05'
   '-z+0.95, -x+3/4, y'
   'z+1/4, x+0.45, -y'
   '-z+0.85, x+0.4, -y+0.05'
   'z+0.35, -x+0.6, y+0.15'
   'y, z+0.3, x+1/2'
   '-y, -z+0.9, -x+0.7'
   '-y+0.05, z+0.2, -x+0.65'
   'y+0.15, -z+0.8, x+0.55'
   'y+0.1, -z+0.85, -x+3/4'
   '-y+0.1, z+0.35, x+0.45'
   '-y+0.15, -z+0.95, x+0.4'
   'y+0.05, z+1/4, -x+0.6'
   'y+0.15, x+0.55, -z+0.8'
   '-y+0.05, -x+0.65, z+0.2'
   '-y, -x+0.7, -z+0.9'
   'y, x+1/2, z+0.3'
   'y+0.05, -x+0.6, z+1/4'
   '-y+0.15, x+0.4, -z+0.95'
   '-y+0.1, x+0.45, z+0.35'
   'y+0.1, -x+3/4, -z+0.85'
   'x+0.55, z+0.35, -y'
   '-x+0.65, -z+0.85, y'
   '-x+0.7, z+1/4, y+0.15'
   'x+1/2, -z+0.95, -y+0.05'
   '-x+0.6, -z+0.9, -y+0.1'
   'x+0.4, z+0.3, y+0.1'
   'x+0.45, -z+0.8, y+0.05'
   '-x+3/4, z+0.2, -y+0.15'
   'z+0.35, y+0.15, -x+0.6'
   '-z+0.85, -y+0.05, x+0.4'
   'z+1/4, -y, x+0.45'
   '-z+0.95, y, -x+3/4'
   '-z+0.9, y+0.05, x+0.55'
   'z+0.3, -y+0.15, -x+0.65'
   '-z+0.8, -y+0.1, -x+0.7'
   'z+0.2, y+0.1, x+1/2'
   'x+1/2, y, z+0.3'
   '-x+0.7, -y, -z+0.9'
   '-x+0.65, -y+0.05, z+0.2'
   'x+0.55, y+0.15, -z+0.8'
   '-x+3/4, y+0.1, -z+0.85'
   'x+0.45, -y+0.1, z+0.35'
   'x+0.4, -y+0.15, -z+0.95'
   '-x+0.6, y+0.05, z+1/4'
   'z+0.3, x+0.4, y+0.1'
   '-z+0.9, -x+0.6, -y+0.1'
   'z+0.2, -x+3/4, -y+0.15'
   '-z+0.8, x+0.45, y+0.05'
   '-z+0.85, -x+0.65, y'
   'z+0.35, x+0.55, -y'
   '-z+0.95, x+1/2, -y+0.05'
   'z+1/4, -x+0.7, y+0.15'
   'y+0.1, z+0.2, x+1/2'
   '-y+0.1, -z+0.8, -x+0.7'
   '-y+0.15, z+0.3, -x+0.65'
   'y+0.05, -z+0.9, x+0.55'
   'y, -z+0.95, -x+3/4'
   '-y, z+1/4, x+0.45'
   '-y+0.05, -z+0.85, x+0.4'
   'y+0.15, z+0.35, -x+0.6'
   'y+0.05, x+0.45, -z+0.8'
   '-y+0.15, -x+3/4, z+0.2'
   '-y+0.1, -x+0.6, -z+0.9'
   'y+0.1, x+0.4, z+0.3'
   'y+0.15, -x+0.7, z+1/4'
   '-y+0.05, x+1/2, -z+0.95'
   '-y, x+0.55, z+0.35'
   'y, -x+0.65, -z+0.85'
   'x+0.45, z+1/4, -y'
   '-x+3/4, -z+0.95, y'
   '-x+0.6, z+0.35, y+0.15'
   'x+0.4, -z+0.85, -y+0.05'
   '-x+0.7, -z+0.8, -y+0.1'
   'x+1/2, z+0.2, y+0.1'
   'x+0.55, -z+0.9, y+0.05'
   '-x+0.65, z+0.3, -y+0.15'
   'z+1/4, y+0.05, -x+0.6'
   '-z+0.95, -y+0.15, x+0.4'
   'z+0.35, -y+0.1, x+0.45'
   '-z+0.85, y+0.1, -x+3/4'
   '-z+0.8, y+0.15, x+0.55'
   'z+0.2, -y+0.05, -x+0.65'
   '-z+0.9, -y, -x+0.7'
   'z+0.3, y, x+1/2'
   'x+1/2, y+0.1, z+0.2'
   '-x+0.7, -y+0.1, -z+0.8'
   '-x+0.65, -y+0.15, z+0.3'
   'x+0.55, y+0.05, -z+0.9'
   '-x+3/4, y, -z+0.95'
   'x+0.45, -y, z+1/4'
   'x+0.4, -y+0.05, -z+0.85'
   '-x+0.6, y+0.15, z+0.35'
   'z+0.3, x+1/2, y'
   '-z+0.9, -x+0.7, -y'
   'z+0.2, -x+0.65, -y+0.05'
   '-z+0.8, x+0.55, y+0.15'
   '-z+0.85, -x+3/4, y+0.1'
   'z+0.35, x+0.45, -y+0.1'
   '-z+0.95, x+0.4, -y+0.15'
   'z+1/4, -x+0.6, y+0.05'
   'y+0.1, z+0.3, x+0.4'
   '-y+0.1, -z+0.9, -x+0.6'
   '-y+0.15, z+0.2, -x+3/4'
   'y+0.05, -z+0.8, x+0.45'
   'y, -z+0.85, -x+0.65'
   '-y, z+0.35, x+0.55'
   '-y+0.05, -z+0.95, x+1/2'
   'y+0.15, z+1/4, -x+0.7'
   'y+0.05, x+0.55, -z+0.9'
   '-y+0.15, -x+0.65, z+0.3'
   '-y+0.1, -x+0.7, -z+0.8'
   'y+0.1, x+1/2, z+0.2'
   'y+0.15, -x+0.6, z+0.35'
   '-y+0.05, x+0.4, -z+0.85'
   '-y, x+0.45, z+1/4'
   'y, -x+3/4, -z+0.95'
   'x+0.45, z+0.35, -y+0.1'
   '-x+3/4, -z+0.85, y+0.1'
   '-x+0.6, z+1/4, y+0.05'
   'x+0.4, -z+0.95, -y+0.15'
   '-x+0.7, -z+0.9, -y'
   'x+1/2, z+0.3, y'
   'x+0.55, -z+0.8, y+0.15'
   '-x+0.65, z+0.2, -y+0.05'
   'z+1/4, y+0.15, -x+0.7'
   '-z+0.95, -y+0.05, x+1/2'
   'z+0.35, -y, x+0.55'
   '-z+0.85, y, -x+0.65'
   '-z+0.8, y+0.05, x+0.45'
   'z+0.2, -y+0.15, -x+3/4'
   '-z+0.9, -y+0.1, -x+0.6'
   'z+0.3, y+0.1, x+0.4'
   'x+0.4, y, z+0.4'
   '-x+0.6, -y, -z+0.6'
   '-x+3/4, -y+0.05, z+1/2'
   'x+0.45, y+0.15, -z+0.7'
   '-x+0.65, y+0.1, -z+3/4'
   'x+0.55, -y+0.1, z+0.45'
   'x+1/2, -y+0.15, -z+0.65'
   '-x+0.7, y+0.05, z+0.55'
   'z+0.4, x+0.4, y'
   '-z+0.6, -x+0.6, -y'
   'z+1/2, -x+3/4, -y+0.05'
   '-z+0.7, x+0.45, y+0.15'
   '-z+3/4, -x+0.65, y+0.1'
   'z+0.45, x+0.55, -y+0.1'
   '-z+0.65, x+1/2, -y+0.15'
   'z+0.55, -x+0.7, y+0.05'
   'y, z+0.4, x+0.4'
   '-y, -z+0.6, -x+0.6'
   '-y+0.05, z+1/2, -x+3/4'
   'y+0.15, -z+0.7, x+0.45'
   'y+0.1, -z+3/4, -x+0.65'
   '-y+0.1, z+0.45, x+0.55'
   '-y+0.15, -z+0.65, x+1/2'
   'y+0.05, z+0.55, -x+0.7'
   'y+0.15, x+0.45, -z+0.7'
   '-y+0.05, -x+3/4, z+1/2'
   '-y, -x+0.6, -z+0.6'
   'y, x+0.4, z+0.4'
   'y+0.05, -x+0.7, z+0.55'
   '-y+0.15, x+1/2, -z+0.65'
   '-y+0.1, x+0.55, z+0.45'
   'y+0.1, -x+0.65, -z+3/4'
   'x+0.55, z+0.45, -y+0.1'
   '-x+0.65, -z+3/4, y+0.1'
   '-x+0.7, z+0.55, y+0.05'
   'x+1/2, -z+0.65, -y+0.15'
   '-x+0.6, -z+0.6, -y'
   'x+0.4, z+0.4, y'
   'x+0.45, -z+0.7, y+0.15'
   '-x+3/4, z+1/2, -y+0.05'
   'z+0.55, y+0.05, -x+0.7'
   '-z+0.65, -y+0.15, x+1/2'
   'z+0.45, -y+0.1, x+0.55'
   '-z+3/4, y+0.1, -x+0.65'
   '-z+0.7, y+0.15, x+0.45'
   'z+1/2, -y+0.05, -x+3/4'
   '-z+0.6, -y, -x+0.6'
   'z+0.4, y, x+0.4'
   'x+0.4, y+0.1, z+1/2'
   '-x+0.6, -y+0.1, -z+0.7'
   '-x+3/4, -y+0.15, z+0.4'
   'x+0.45, y+0.05, -z+0.6'
   '-x+0.65, y, -z+0.65'
   'x+0.55, -y, z+0.55'
   'x+1/2, -y+0.05, -z+3/4'
   '-x+0.7, y+0.15, z+0.45'
   'z+0.4, x+1/2, y+0.1'
   '-z+0.6, -x+0.7, -y+0.1'
   'z+1/2, -x+0.65, -y+0.15'
   '-z+0.7, x+0.55, y+0.05'
   '-z+3/4, -x+3/4, y'
   'z+0.45, x+0.45, -y'
   '-z+0.65, x+0.4, -y+0.05'
   'z+0.55, -x+0.6, y+0.15'
   'y, z+1/2, x+1/2'
   '-y, -z+0.7, -x+0.7'
   '-y+0.05, z+0.4, -x+0.65'
   'y+0.15, -z+0.6, x+0.55'
   'y+0.1, -z+0.65, -x+3/4'
   '-y+0.1, z+0.55, x+0.45'
   '-y+0.15, -z+3/4, x+0.4'
   'y+0.05, z+0.45, -x+0.6'
   'y+0.15, x+0.55, -z+0.6'
   '-y+0.05, -x+0.65, z+0.4'
   '-y, -x+0.7, -z+0.7'
   'y, x+1/2, z+1/2'
   'y+0.05, -x+0.6, z+0.45'
   '-y+0.15, x+0.4, -z+3/4'
   '-y+0.1, x+0.45, z+0.55'
   'y+0.1, -x+3/4, -z+0.65'
   'x+0.55, z+0.55, -y'
   '-x+0.65, -z+0.65, y'
   '-x+0.7, z+0.45, y+0.15'
   'x+1/2, -z+3/4, -y+0.05'
   '-x+0.6, -z+0.7, -y+0.1'
   'x+0.4, z+1/2, y+0.1'
   'x+0.45, -z+0.6, y+0.05'
   '-x+3/4, z+0.4, -y+0.15'
   'z+0.55, y+0.15, -x+0.6'
   '-z+0.65, -y+0.05, x+0.4'
   'z+0.45, -y, x+0.45'
   '-z+3/4, y, -x+3/4'
   '-z+0.7, y+0.05, x+0.55'
   'z+1/2, -y+0.15, -x+0.65'
   '-z+0.6, -y+0.1, -x+0.7'
   'z+0.4, y+0.1, x+1/2'
   'x+1/2, y, z+1/2'
   '-x+0.7, -y, -z+0.7'
   '-x+0.65, -y+0.05, z+0.4'
   'x+0.55, y+0.15, -z+0.6'
   '-x+3/4, y+0.1, -z+0.65'
   'x+0.45, -y+0.1, z+0.55'
   'x+0.4, -y+0.15, -z+3/4'
   '-x+0.6, y+0.05, z+0.45'
   'z+1/2, x+0.4, y+0.1'
   '-z+0.7, -x+0.6, -y+0.1'
   'z+0.4, -x+3/4, -y+0.15'
   '-z+0.6, x+0.45, y+0.05'
   '-z+0.65, -x+0.65, y'
   'z+0.55, x+0.55, -y'
   '-z+3/4, x+1/2, -y+0.05'
   'z+0.45, -x+0.7, y+0.15'
   'y+0.1, z+0.4, x+1/2'
   '-y+0.1, -z+0.6, -x+0.7'
   '-y+0.15, z+1/2, -x+0.65'
   'y+0.05, -z+0.7, x+0.55'
   'y, -z+3/4, -x+3/4'
   '-y, z+0.45, x+0.45'
   '-y+0.05, -z+0.65, x+0.4'
   'y+0.15, z+0.55, -x+0.6'
   'y+0.05, x+0.45, -z+0.6'
   '-y+0.15, -x+3/4, z+0.4'
   '-y+0.1, -x+0.6, -z+0.7'
   'y+0.1, x+0.4, z+1/2'
   'y+0.15, -x+0.7, z+0.45'
   '-y+0.05, x+1/2, -z+3/4'
   '-y, x+0.55, z+0.55'
   'y, -x+0.65, -z+0.65'
   'x+0.45, z+0.45, -y'
   '-x+3/4, -z+3/4, y'
   '-x+0.6, z+0.55, y+0.15'
   'x+0.4, -z+0.65, -y+0.05'
   '-x+0.7, -z+0.6, -y+0.1'
   'x+1/2, z+0.4, y+0.1'
   'x+0.55, -z+0.7, y+0.05'
   '-x+0.65, z+1/2, -y+0.15'
   'z+0.45, y+0.05, -x+0.6'
   '-z+3/4, -y+0.15, x+0.4'
   'z+0.55, -y+0.1, x+0.45'
   '-z+0.65, y+0.1, -x+3/4'
   '-z+0.6, y+0.15, x+0.55'
   'z+0.4, -y+0.05, -x+0.65'
   '-z+0.7, -y, -x+0.7'
   'z+1/2, y, x+1/2'
   'x+1/2, y+0.1, z+0.4'
   '-x+0.7, -y+0.1, -z+0.6'
   '-x+0.65, -y+0.15, z+1/2'
   'x+0.55, y+0.05, -z+0.7'
   '-x+3/4, y, -z+3/4'
   'x+0.45, -y, z+0.45'
   'x+0.4, -y+0.05, -z+0.65'
   '-x+0.6, y+0.15, z+0.55'
   'z+1/2, x+1/2, y'
   '-z+0.7, -x+0.7, -y'
   'z+0.4, -x+0.65, -y+0.05'
   '-z+0.6, x+0.55, y+0.15'
   '-z+0.65, -x+3/4, y+0.1'
   'z+0.55, x+0.45, -y+0.1'
   '-z+3/4, x+0.4, -y+0.15'
   'z+0.45, -x+0.6, y+0.05'
   'y+0.1, z+1/2, x+0.4'
   '-y+0.1, -z+0.7, -x+0.6'
   '-y+0.15, z+0.4, -x+3/4'
   'y+0.05, -z+0.6, x+0.45'
   'y, -z+0.65, -x+0.65'
   '-y, z+0.55, x+0.55'
   '-y+0.05, -z+3/4, x+1/2'
   'y+0.15, z+0.45, -x+0.7'
   'y+0.05, x+0.55, -z+0.7'
   '-y+0.15, -x+0.65, z+1/2'
   '-y+0.1, -x+0.7, -z+0.6'
   'y+0.1, x+1/2, z+0.4'
   'y+0.15, -x+0.6, z+0.55'
   '-y+0.05, x+0.4, -z+0.65'
   '-y, x+0.45, z+0.45'
   'y, -x+3/4, -z+3/4'
   'x+0.45, z+0.55, -y+0.1'
   '-x+3/4, -z+0.65, y+0.1'
   '-x+0.6, z+0.45, y+0.05'
   'x+0.4, -z+3/4, -y+0.15'
   '-x+0.7, -z+0.7, -y'
   'x+1/2, z+1/2, y'
   'x+0.55, -z+0.6, y+0.15'
   '-x+0.65, z+0.4, -y+0.05'
   'z+0.45, y+0.15, -x+0.7'
   '-z+3/4, -y+0.05, x+1/2'
   'z+0.55, -y, x+0.55'
   '-z+0.65, y, -x+0.65'
   '-z+0.6, y+0.05, x+0.45'
   'z+0.4, -y+0.15, -x+3/4'
   '-z+0.7, -y+0.1, -x+0.6'
   'z+1/2, y+0.1, x+0.4'
   'x+0.4, y, z+0.6'
   '-x+0.6, -y, -z+0.4'
   '-x+3/4, -y+0.05, z+0.7'
   'x+0.45, y+0.15, -z+1/2'
   '-x+0.65, y+0.1, -z+0.55'
   'x+0.55, -y+0.1, z+0.65'
   'x+1/2, -y+0.15, -z+0.45'
   '-x+0.7, y+0.05, z+3/4'
   'z+0.6, x+0.4, y'
   '-z+0.4, -x+0.6, -y'
   'z+0.7, -x+3/4, -y+0.05'
   '-z+1/2, x+0.45, y+0.15'
   '-z+0.55, -x+0.65, y+0.1'
   'z+0.65, x+0.55, -y+0.1'
   '-z+0.45, x+1/2, -y+0.15'
   'z+3/4, -x+0.7, y+0.05'
   'y, z+0.6, x+0.4'
   '-y, -z+0.4, -x+0.6'
   '-y+0.05, z+0.7, -x+3/4'
   'y+0.15, -z+1/2, x+0.45'
   'y+0.1, -z+0.55, -x+0.65'
   '-y+0.1, z+0.65, x+0.55'
   '-y+0.15, -z+0.45, x+1/2'
   'y+0.05, z+3/4, -x+0.7'
   'y+0.15, x+0.45, -z+1/2'
   '-y+0.05, -x+3/4, z+0.7'
   '-y, -x+0.6, -z+0.4'
   'y, x+0.4, z+0.6'
   'y+0.05, -x+0.7, z+3/4'
   '-y+0.15, x+1/2, -z+0.45'
   '-y+0.1, x+0.55, z+0.65'
   'y+0.1, -x+0.65, -z+0.55'
   'x+0.55, z+0.65, -y+0.1'
   '-x+0.65, -z+0.55, y+0.1'
   '-x+0.7, z+3/4, y+0.05'
   'x+1/2, -z+0.45, -y+0.15'
   '-x+0.6, -z+0.4, -y'
   'x+0.4, z+0.6, y'
   'x+0.45, -z+1/2, y+0.15'
   '-x+3/4, z+0.7, -y+0.05'
   'z+3/4, y+0.05, -x+0.7'
   '-z+0.45, -y+0.15, x+1/2'
   'z+0.65, -y+0.1, x+0.55'
   '-z+0.55, y+0.1, -x+0.65'
   '-z+1/2, y+0.15, x+0.45'
   'z+0.7, -y+0.05, -x+3/4'
   '-z+0.4, -y, -x+0.6'
   'z+0.6, y, x+0.4'
   'x+0.4, y+0.1, z+0.7'
   '-x+0.6, -y+0.1, -z+1/2'
   '-x+3/4, -y+0.15, z+0.6'
   'x+0.45, y+0.05, -z+0.4'
   '-x+0.65, y, -z+0.45'
   'x+0.55, -y, z+3/4'
   'x+1/2, -y+0.05, -z+0.55'
   '-x+0.7, y+0.15, z+0.65'
   'z+0.6, x+1/2, y+0.1'
   '-z+0.4, -x+0.7, -y+0.1'
   'z+0.7, -x+0.65, -y+0.15'
   '-z+1/2, x+0.55, y+0.05'
   '-z+0.55, -x+3/4, y'
   'z+0.65, x+0.45, -y'
   '-z+0.45, x+0.4, -y+0.05'
   'z+3/4, -x+0.6, y+0.15'
   'y, z+0.7, x+1/2'
   '-y, -z+1/2, -x+0.7'
   '-y+0.05, z+0.6, -x+0.65'
   'y+0.15, -z+0.4, x+0.55'
   'y+0.1, -z+0.45, -x+3/4'
   '-y+0.1, z+3/4, x+0.45'
   '-y+0.15, -z+0.55, x+0.4'
   'y+0.05, z+0.65, -x+0.6'
   'y+0.15, x+0.55, -z+0.4'
   '-y+0.05, -x+0.65, z+0.6'
   '-y, -x+0.7, -z+1/2'
   'y, x+1/2, z+0.7'
   'y+0.05, -x+0.6, z+0.65'
   '-y+0.15, x+0.4, -z+0.55'
   '-y+0.1, x+0.45, z+3/4'
   'y+0.1, -x+3/4, -z+0.45'
   'x+0.55, z+3/4, -y'
   '-x+0.65, -z+0.45, y'
   '-x+0.7, z+0.65, y+0.15'
   'x+1/2, -z+0.55, -y+0.05'
   '-x+0.6, -z+1/2, -y+0.1'
   'x+0.4, z+0.7, y+0.1'
   'x+0.45, -z+0.4, y+0.05'
   '-x+3/4, z+0.6, -y+0.15'
   'z+3/4, y+0.15, -x+0.6'
   '-z+0.45, -y+0.05, x+0.4'
   'z+0.65, -y, x+0.45'
   '-z+0.55, y, -x+3/4'
   '-z+1/2, y+0.05, x+0.55'
   'z+0.7, -y+0.15, -x+0.65'
   '-z+0.4, -y+0.1, -x+0.7'
   'z+0.6, y+0.1, x+1/2'
   'x+1/2, y, z+0.7'
   '-x+0.7, -y, -z+1/2'
   '-x+0.65, -y+0.05, z+0.6'
   'x+0.55, y+0.15, -z+0.4'
   '-x+3/4, y+0.1, -z+0.45'
   'x+0.45, -y+0.1, z+3/4'
   'x+0.4, -y+0.15, -z+0.55'
   '-x+0.6, y+0.05, z+0.65'
   'z+0.7, x+0.4, y+0.1'
   '-z+1/2, -x+0.6, -y+0.1'
   'z+0.6, -x+3/4, -y+0.15'
   '-z+0.4, x+0.45, y+0.05'
   '-z+0.45, -x+0.65, y'
   'z+3/4, x+0.55, -y'
   '-z+0.55, x+1/2, -y+0.05'
   'z+0.65, -x+0.7, y+0.15'
   'y+0.1, z+0.6, x+1/2'
   '-y+0.1, -z+0.4, -x+0.7'
   '-y+0.15, z+0.7, -x+0.65'
   'y+0.05, -z+1/2, x+0.55'
   'y, -z+0.55, -x+3/4'
   '-y, z+0.65, x+0.45'
   '-y+0.05, -z+0.45, x+0.4'
   'y+0.15, z+3/4, -x+0.6'
   'y+0.05, x+0.45, -z+0.4'
   '-y+0.15, -x+3/4, z+0.6'
   '-y+0.1, -x+0.6, -z+1/2'
   'y+0.1, x+0.4, z+0.7'
   'y+0.15, -x+0.7, z+0.65'
   '-y+0.05, x+1/2, -z+0.55'
   '-y, x+0.55, z+3/4'
   'y, -x+0.65, -z+0.45'
   'x+0.45, z+0.65, -y'
   '-x+3/4, -z+0.55, y'
   '-x+0.6, z+3/4, y+0.15'
   'x+0.4, -z+0.45, -y+0.05'
   '-x+0.7, -z+0.4, -y+0.1'
   'x+1/2, z+0.6, y+0.1'
   'x+0.55, -z+1/2, y+0.05'
   '-x+0.65, z+0.7, -y+0.15'
   'z+0.65, y+0.05, -x+0.6'
   '-z+0.55, -y+0.15, x+0.4'
   'z+3/4, -y+0.1, x+0.45'
   '-z+0.45, y+0.1, -x+3/4'
   '-z+0.4, y+0.15, x+0.55'
   'z+0.6, -y+0.05, -x+0.65'
   '-z+1/2, -y, -x+0.7'
   'z+0.7, y, x+1/2'
   'x+1/2, y+0.1, z+0.6'
   '-x+0.7, -y+0.1, -z+0.4'
   '-x+0.65, -y+0.15, z+0.7'
   'x+0.55, y+0.05, -z+1/2'
   '-x+3/4, y, -z+0.55'
   'x+0.45, -y, z+0.65'
   'x+0.4, -y+0.05, -z+0.45'
   '-x+0.6, y+0.15, z+3/4'
   'z+0.7, x+1/2, y'
   '-z+1/2, -x+0.7, -y'
   'z+0.6, -x+0.65, -y+0.05'
   '-z+0.4, x+0.55, y+0.15'
   '-z+0.45, -x+3/4, y+0.1'
   'z+3/4, x+0.45, -y+0.1'
   '-z+0.55, x+0.4, -y+0.15'
   'z+0.65, -x+0.6, y+0.05'
   'y+0.1, z+0.7, x+0.4'
   '-y+0.1, -z+1/2, -x+0.6'
   '-y+0.15, z+0.6, -x+3/4'
   'y+0.05, -z+0.4, x+0.45'
   'y, -z+0.45, -x+0.65'
   '-y, z+3/4, x+0.55'
   '-y+0.05, -z+0.55, x+1/2'
   'y+0.15, z+0.65, -x+0.7'
   'y+0.05, x+0.55, -z+1/2'
   '-y+0.15, -x+0.65, z+0.7'
   '-y+0.1, -x+0.7, -z+0.4'
   'y+0.1, x+1/2, z+0.6'
   'y+0.15, -x+0.6, z+3/4'
   '-y+0.05, x+0.4, -z+0.45'
   '-y, x+0.45, z+0.65'
   'y, -x+3/4, -z+0.55'
   'x+0.45, z+3/4, -y+0.1'
   '-x+3/4, -z+0.45, y+0.1'
   '-x+0.6, z+0.65, y+0.05'
   'x+0.4, -z+0.55, -y+0.15'
   '-x+0.7, -z+1/2, -y'
   'x+1/2, z+0.7, y'
   'x+0.55, -z+0.4, y+0.15'
   '-x+0.65, z+0.6, -y+0.05'
   'z+0.65, y+0.15, -x+0.7'
   '-z+0.55, -y+0.05, x+1/2'
   'z+3/4, -y, x+0.55'
   '-z+0.45, y, -x+0.65'
   '-z+0.4, y+0.05, x+0.45'
   'z+0.6, -y+0.15, -x+3/4'
   '-z+1/2, -y+0.1, -x+0.6'
   'z+0.7, y+0.1, x+0.4'
   'x+0.4, y, z+0.8'
   '-x+0.6, -y, -z+0.2'
   '-x+3/4, -y+0.05, z+0.9'
   'x+0.45, y+0.15, -z+0.3'
   '-x+0.65, y+0.1, -z+0.35'
   'x+0.55, -y+0.1, z+0.85'
   'x+1/2, -y+0.15, -z+1/4'
   '-x+0.7, y+0.05, z+0.95'
   'z+0.8, x+0.4, y'
   '-z+0.2, -x+0.6, -y'
   'z+0.9, -x+3/4, -y+0.05'
   '-z+0.3, x+0.45, y+0.15'
   '-z+0.35, -x+0.65, y+0.1'
   'z+0.85, x+0.55, -y+0.1'
   '-z+1/4, x+1/2, -y+0.15'
   'z+0.95, -x+0.7, y+0.05'
   'y, z+0.8, x+0.4'
   '-y, -z+0.2, -x+0.6'
   '-y+0.05, z+0.9, -x+3/4'
   'y+0.15, -z+0.3, x+0.45'
   'y+0.1, -z+0.35, -x+0.65'
   '-y+0.1, z+0.85, x+0.55'
   '-y+0.15, -z+1/4, x+1/2'
   'y+0.05, z+0.95, -x+0.7'
   'y+0.15, x+0.45, -z+0.3'
   '-y+0.05, -x+3/4, z+0.9'
   '-y, -x+0.6, -z+0.2'
   'y, x+0.4, z+0.8'
   'y+0.05, -x+0.7, z+0.95'
   '-y+0.15, x+1/2, -z+1/4'
   '-y+0.1, x+0.55, z+0.85'
   'y+0.1, -x+0.65, -z+0.35'
   'x+0.55, z+0.85, -y+0.1'
   '-x+0.65, -z+0.35, y+0.1'
   '-x+0.7, z+0.95, y+0.05'
   'x+1/2, -z+1/4, -y+0.15'
   '-x+0.6, -z+0.2, -y'
   'x+0.4, z+0.8, y'
   'x+0.45, -z+0.3, y+0.15'
   '-x+3/4, z+0.9, -y+0.05'
   'z+0.95, y+0.05, -x+0.7'
   '-z+1/4, -y+0.15, x+1/2'
   'z+0.85, -y+0.1, x+0.55'
   '-z+0.35, y+0.1, -x+0.65'
   '-z+0.3, y+0.15, x+0.45'
   'z+0.9, -y+0.05, -x+3/4'
   '-z+0.2, -y, -x+0.6'
   'z+0.8, y, x+0.4'
   'x+0.4, y+0.1, z+0.9'
   '-x+0.6, -y+0.1, -z+0.3'
   '-x+3/4, -y+0.15, z+0.8'
   'x+0.45, y+0.05, -z+0.2'
   '-x+0.65, y, -z+1/4'
   'x+0.55, -y, z+0.95'
   'x+1/2, -y+0.05, -z+0.35'
   '-x+0.7, y+0.15, z+0.85'
   'z+0.8, x+1/2, y+0.1'
   '-z+0.2, -x+0.7, -y+0.1'
   'z+0.9, -x+0.65, -y+0.15'
   '-z+0.3, x+0.55, y+0.05'
   '-z+0.35, -x+3/4, y'
   'z+0.85, x+0.45, -y'
   '-z+1/4, x+0.4, -y+0.05'
   'z+0.95, -x+0.6, y+0.15'
   'y, z+0.9, x+1/2'
   '-y, -z+0.3, -x+0.7'
   '-y+0.05, z+0.8, -x+0.65'
   'y+0.15, -z+0.2, x+0.55'
   'y+0.1, -z+1/4, -x+3/4'
   '-y+0.1, z+0.95, x+0.45'
   '-y+0.15, -z+0.35, x+0.4'
   'y+0.05, z+0.85, -x+0.6'
   'y+0.15, x+0.55, -z+0.2'
   '-y+0.05, -x+0.65, z+0.8'
   '-y, -x+0.7, -z+0.3'
   'y, x+1/2, z+0.9'
   'y+0.05, -x+0.6, z+0.85'
   '-y+0.15, x+0.4, -z+0.35'
   '-y+0.1, x+0.45, z+0.95'
   'y+0.1, -x+3/4, -z+1/4'
   'x+0.55, z+0.95, -y'
   '-x+0.65, -z+1/4, y'
   '-x+0.7, z+0.85, y+0.15'
   'x+1/2, -z+0.35, -y+0.05'
   '-x+0.6, -z+0.3, -y+0.1'
   'x+0.4, z+0.9, y+0.1'
   'x+0.45, -z+0.2, y+0.05'
   '-x+3/4, z+0.8, -y+0.15'
   'z+0.95, y+0.15, -x+0.6'
   '-z+1/4, -y+0.05, x+0.4'
   'z+0.85, -y, x+0.45'
   '-z+0.35, y, -x+3/4'
   '-z+0.3, y+0.05, x+0.55'
   'z+0.9, -y+0.15, -x+0.65'
   '-z+0.2, -y+0.1, -x+0.7'
   'z+0.8, y+0.1, x+1/2'
   'x+1/2, y, z+0.9'
   '-x+0.7, -y, -z+0.3'
   '-x+0.65, -y+0.05, z+0.8'
   'x+0.55, y+0.15, -z+0.2'
   '-x+3/4, y+0.1, -z+1/4'
   'x+0.45, -y+0.1, z+0.95'
   'x+0.4, -y+0.15, -z+0.35'
   '-x+0.6, y+0.05, z+0.85'
   'z+0.9, x+0.4, y+0.1'
   '-z+0.3, -x+0.6, -y+0.1'
   'z+0.8, -x+3/4, -y+0.15'
   '-z+0.2, x+0.45, y+0.05'
   '-z+1/4, -x+0.65, y'
   'z+0.95, x+0.55, -y'
   '-z+0.35, x+1/2, -y+0.05'
   'z+0.85, -x+0.7, y+0.15'
   'y+0.1, z+0.8, x+1/2'
   '-y+0.1, -z+0.2, -x+0.7'
   '-y+0.15, z+0.9, -x+0.65'
   'y+0.05, -z+0.3, x+0.55'
   'y, -z+0.35, -x+3/4'
   '-y, z+0.85, x+0.45'
   '-y+0.05, -z+1/4, x+0.4'
   'y+0.15, z+0.95, -x+0.6'
   'y+0.05, x+0.45, -z+0.2'
   '-y+0.15, -x+3/4, z+0.8'
   '-y+0.1, -x+0.6, -z+0.3'
   'y+0.1, x+0.4, z+0.9'
   'y+0.15, -x+0.7, z+0.85'
   '-y+0.05, x+1/2, -z+0.35'
   '-y, x+0.55, z+0.95'
   'y, -x+0.65, -z+1/4'
   'x+0.45, z+0.85, -y'
   '-x+3/4, -z+0.35, y'
   '-x+0.6, z+0.95, y+0.15'
   'x+0.4, -z+1/4, -y+0.05'
   '-x+0.7, -z+0.2, -y+0.1'
   'x+1/2, z+0.8, y+0.1'
   'x+0.55, -z+0.3, y+0.05'
   '-x+0.65, z+0.9, -y+0.15'
   'z+0.85, y+0.05, -x+0.6'
   '-z+0.35, -y+0.15, x+0.4'
   'z+0.95, -y+0.1, x+0.45'
   '-z+1/4, y+0.1, -x+3/4'
   '-z+0.2, y+0.15, x+0.55'
   'z+0.8, -y+0.05, -x+0.65'
   '-z+0.3, -y, -x+0.7'
   'z+0.9, y, x+1/2'
   'x+1/2, y+0.1, z+0.8'
   '-x+0.7, -y+0.1, -z+0.2'
   '-x+0.65, -y+0.15, z+0.9'
   'x+0.55, y+0.05, -z+0.3'
   '-x+3/4, y, -z+0.35'
   'x+0.45, -y, z+0.85'
   'x+0.4, -y+0.05, -z+1/4'
   '-x+0.6, y+0.15, z+0.95'
   'z+0.9, x+1/2, y'
   '-z+0.3, -x+0.7, -y'
   'z+0.8, -x+0.65, -y+0.05'
   '-z+0.2, x+0.55, y+0.15'
   '-z+1/4, -x+3/4, y+0.1'
   'z+0.95, x+0.45, -y+0.1'
   '-z+0.35, x+0.4, -y+0.15'
   'z+0.85, -x+0.6, y+0.05'
   'y+0.1, z+0.9, x+0.4'
   '-y+0.1, -z+0.3, -x+0.6'
   '-y+0.15, z+0.8, -x+3/4'
   'y+0.05, -z+0.2, x+0.45'
   'y, -z+1/4, -x+0.65'
   '-y, z+0.95, x+0.55'
   '-y+0.05, -z+0.35, x+1/2'
   'y+0.15, z+0.85, -x+0.7'
   'y+0.05, x+0.55, -z+0.3'
   '-y+0.15, -x+0.65, z+0.9'
   '-y+0.1, -x+0.7, -z+0.2'
   'y+0.1, x+1/2, z+0.8'
   'y+0.15, -x+0.6, z+0.95'
   '-y+0.05, x+0.4, -z+1/4'
   '-y, x+0.45, z+0.85'
   'y, -x+3/4, -z+0.35'
   'x+0.45, z+0.95, -y+0.1'
   '-x+3/4, -z+1/4, y+0.1'
   '-x+0.6, z+0.85, y+0.05'
   'x+0.4, -z+0.35, -y+0.15'
   '-x+0.7, -z+0.3, -y'
   'x+1/2, z+0.9, y'
   'x+0.55, -z+0.2, y+0.15'
   '-x+0.65, z+0.8, -y+0.05'
   'z+0.85, y+0.15, -x+0.7'
   '-z+0.35, -y+0.05, x+1/2'
   'z+0.95, -y, x+0.55'
   '-z+1/4, y, -x+0.65'
   '-z+0.2, y+0.05, x+0.45'
   'z+0.8, -y+0.15, -x+3/4'
   '-z+0.3, -y+0.1, -x+0.6'
   'z+0.9, y+0.1, x+0.4'
   'x+0.4, y+0.2, z'
   '-x+0.6, -y+0.8, -z'
   '-x+3/4, -y+0.85, z+0.1'
   'x+0.45, y+0.35, -z+0.1'
   '-x+0.65, y+0.3, -z+0.15'
   'x+0.55, -y+0.9, z+0.05'
   'x+1/2, -y+0.95, -z+0.05'
   '-x+0.7, y+1/4, z+0.15'
   'z, x+0.4, y+0.2'
   '-z, -x+0.6, -y+0.8'
   'z+0.1, -x+3/4, -y+0.85'
   '-z+0.1, x+0.45, y+0.35'
   '-z+0.15, -x+0.65, y+0.3'
   'z+0.05, x+0.55, -y+0.9'
   '-z+0.05, x+1/2, -y+0.95'
   'z+0.15, -x+0.7, y+1/4'
   'y+0.2, z, x+0.4'
   '-y+0.8, -z, -x+0.6'
   '-y+0.85, z+0.1, -x+3/4'
   'y+0.35, -z+0.1, x+0.45'
   'y+0.3, -z+0.15, -x+0.65'
   '-y+0.9, z+0.05, x+0.55'
   '-y+0.95, -z+0.05, x+1/2'
   'y+1/4, z+0.15, -x+0.7'
   'y+0.35, x+0.45, -z+0.1'
   '-y+0.85, -x+3/4, z+0.1'
   '-y+0.8, -x+0.6, -z'
   'y+0.2, x+0.4, z'
   'y+1/4, -x+0.7, z+0.15'
   '-y+0.95, x+1/2, -z+0.05'
   '-y+0.9, x+0.55, z+0.05'
   'y+0.3, -x+0.65, -z+0.15'
   'x+0.55, z+0.05, -y+0.9'
   '-x+0.65, -z+0.15, y+0.3'
   '-x+0.7, z+0.15, y+1/4'
   'x+1/2, -z+0.05, -y+0.95'
   '-x+0.6, -z, -y+0.8'
   'x+0.4, z, y+0.2'
   'x+0.45, -z+0.1, y+0.35'
   '-x+3/4, z+0.1, -y+0.85'
   'z+0.15, y+1/4, -x+0.7'
   '-z+0.05, -y+0.95, x+1/2'
   'z+0.05, -y+0.9, x+0.55'
   '-z+0.15, y+0.3, -x+0.65'
   '-z+0.1, y+0.35, x+0.45'
   'z+0.1, -y+0.85, -x+3/4'
   '-z, -y+0.8, -x+0.6'
   'z, y+0.2, x+0.4'
   'x+0.4, y+0.3, z+0.1'
   '-x+0.6, -y+0.9, -z+0.1'
   '-x+3/4, -y+0.95, z'
   'x+0.45, y+1/4, -z'
   '-x+0.65, y+0.2, -z+0.05'
   'x+0.55, -y+0.8, z+0.15'
   'x+1/2, -y+0.85, -z+0.15'
   '-x+0.7, y+0.35, z+0.05'
   'z, x+1/2, y+0.3'
   '-z, -x+0.7, -y+0.9'
   'z+0.1, -x+0.65, -y+0.95'
   '-z+0.1, x+0.55, y+1/4'
   '-z+0.15, -x+3/4, y+0.2'
   'z+0.05, x+0.45, -y+0.8'
   '-z+0.05, x+0.4, -y+0.85'
   'z+0.15, -x+0.6, y+0.35'
   'y+0.2, z+0.1, x+1/2'
   '-y+0.8, -z+0.1, -x+0.7'
   '-y+0.85, z, -x+0.65'
   'y+0.35, -z, x+0.55'
   'y+0.3, -z+0.05, -x+3/4'
   '-y+0.9, z+0.15, x+0.45'
   '-y+0.95, -z+0.15, x+0.4'
   'y+1/4, z+0.05, -x+0.6'
   'y+0.35, x+0.55, -z'
   '-y+0.85, -x+0.65, z'
   '-y+0.8, -x+0.7, -z+0.1'
   'y+0.2, x+1/2, z+0.1'
   'y+1/4, -x+0.6, z+0.05'
   '-y+0.95, x+0.4, -z+0.15'
   '-y+0.9, x+0.45, z+0.15'
   'y+0.3, -x+3/4, -z+0.05'
   'x+0.55, z+0.15, -y+0.8'
   '-x+0.65, -z+0.05, y+0.2'
   '-x+0.7, z+0.05, y+0.35'
   'x+1/2, -z+0.15, -y+0.85'
   '-x+0.6, -z+0.1, -y+0.9'
   'x+0.4, z+0.1, y+0.3'
   'x+0.45, -z, y+1/4'
   '-x+3/4, z, -y+0.95'
   'z+0.15, y+0.35, -x+0.6'
   '-z+0.05, -y+0.85, x+0.4'
   'z+0.05, -y+0.8, x+0.45'
   '-z+0.15, y+0.2, -x+3/4'
   '-z+0.1, y+1/4, x+0.55'
   'z+0.1, -y+0.95, -x+0.65'
   '-z, -y+0.9, -x+0.7'
   'z, y+0.3, x+1/2'
   'x+1/2, y+0.2, z+0.1'
   '-x+0.7, -y+0.8, -z+0.1'
   '-x+0.65, -y+0.85, z'
   'x+0.55, y+0.35, -z'
   '-x+3/4, y+0.3, -z+0.05'
   'x+0.45, -y+0.9, z+0.15'
   'x+0.4, -y+0.95, -z+0.15'
   '-x+0.6, y+1/4, z+0.05'
   'z+0.1, x+0.4, y+0.3'
   '-z+0.1, -x+0.6, -y+0.9'
   'z, -x+3/4, -y+0.95'
   '-z, x+0.45, y+1/4'
   '-z+0.05, -x+0.65, y+0.2'
   'z+0.15, x+0.55, -y+0.8'
   '-z+0.15, x+1/2, -y+0.85'
   'z+0.05, -x+0.7, y+0.35'
   'y+0.3, z, x+1/2'
   '-y+0.9, -z, -x+0.7'
   '-y+0.95, z+0.1, -x+0.65'
   'y+1/4, -z+0.1, x+0.55'
   'y+0.2, -z+0.15, -x+3/4'
   '-y+0.8, z+0.05, x+0.45'
   '-y+0.85, -z+0.05, x+0.4'
   'y+0.35, z+0.15, -x+0.6'
   'y+1/4, x+0.45, -z'
   '-y+0.95, -x+3/4, z'
   '-y+0.9, -x+0.6, -z+0.1'
   'y+0.3, x+0.4, z+0.1'
   'y+0.35, -x+0.7, z+0.05'
   '-y+0.85, x+1/2, -z+0.15'
   '-y+0.8, x+0.55, z+0.15'
   'y+0.2, -x+0.65, -z+0.05'
   'x+0.45, z+0.05, -y+0.8'
   '-x+3/4, -z+0.15, y+0.2'
   '-x+0.6, z+0.15, y+0.35'
   'x+0.4, -z+0.05, -y+0.85'
   '-x+0.7, -z, -y+0.9'
   'x+1/2, z, y+0.3'
   'x+0.55, -z+0.1, y+1/4'
   '-x+0.65, z+0.1, -y+0.95'
   'z+0.05, y+1/4, -x+0.6'
   '-z+0.15, -y+0.95, x+0.4'
   'z+0.15, -y+0.9, x+0.45'
   '-z+0.05, y+0.3, -x+3/4'
   '-z, y+0.35, x+0.55'
   'z, -y+0.85, -x+0.65'
   '-z+0.1, -y+0.8, -x+0.7'
   'z+0.1, y+0.2, x+1/2'
   'x+1/2, y+0.3, z'
   '-x+0.7, -y+0.9, -z'
   '-x+0.65, -y+0.95, z+0.1'
   'x+0.55, y+1/4, -z+0.1'
   '-x+3/4, y+0.2, -z+0.15'
   'x+0.45, -y+0.8, z+0.05'
   'x+0.4, -y+0.85, -z+0.05'
   '-x+0.6, y+0.35, z+0.15'
   'z+0.1, x+1/2, y+0.2'
   '-z+0.1, -x+0.7, -y+0.8'
   'z, -x+0.65, -y+0.85'
   '-z, x+0.55, y+0.35'
   '-z+0.05, -x+3/4, y+0.3'
   'z+0.15, x+0.45, -y+0.9'
   '-z+0.15, x+0.4, -y+0.95'
   'z+0.05, -x+0.6, y+1/4'
   'y+0.3, z+0.1, x+0.4'
   '-y+0.9, -z+0.1, -x+0.6'
   '-y+0.95, z, -x+3/4'
   'y+1/4, -z, x+0.45'
   'y+0.2, -z+0.05, -x+0.65'
   '-y+0.8, z+0.15, x+0.55'
   '-y+0.85, -z+0.15, x+1/2'
   'y+0.35, z+0.05, -x+0.7'
   'y+1/4, x+0.55, -z+0.1'
   '-y+0.95, -x+0.65, z+0.1'
   '-y+0.9, -x+0.7, -z'
   'y+0.3, x+1/2, z'
   'y+0.35, -x+0.6, z+0.15'
   '-y+0.85, x+0.4, -z+0.05'
   '-y+0.8, x+0.45, z+0.05'
   'y+0.2, -x+3/4, -z+0.15'
   'x+0.45, z+0.15, -y+0.9'
   '-x+3/4, -z+0.05, y+0.3'
   '-x+0.6, z+0.05, y+1/4'
   'x+0.4, -z+0.15, -y+0.95'
   '-x+0.7, -z+0.1, -y+0.8'
   'x+1/2, z+0.1, y+0.2'
   'x+0.55, -z, y+0.35'
   '-x+0.65, z, -y+0.85'
   'z+0.05, y+0.35, -x+0.7'
   '-z+0.15, -y+0.85, x+1/2'
   'z+0.15, -y+0.8, x+0.55'
   '-z+0.05, y+0.2, -x+0.65'
   '-z, y+1/4, x+0.45'
   'z, -y+0.95, -x+3/4'
   '-z+0.1, -y+0.9, -x+0.6'
   'z+0.1, y+0.3, x+0.4'
   'x+0.4, y+0.2, z+0.2'
   '-x+0.6, -y+0.8, -z+0.8'
   '-x+3/4, -y+0.85, z+0.3'
   'x+0.45, y+0.35, -z+0.9'
   '-x+0.65, y+0.3, -z+0.95'
   'x+0.55, -y+0.9, z+1/4'
   'x+1/2, -y+0.95, -z+0.85'
   '-x+0.7, y+1/4, z+0.35'
   'z+0.2, x+0.4, y+0.2'
   '-z+0.8, -x+0.6, -y+0.8'
   'z+0.3, -x+3/4, -y+0.85'
   '-z+0.9, x+0.45, y+0.35'
   '-z+0.95, -x+0.65, y+0.3'
   'z+1/4, x+0.55, -y+0.9'
   '-z+0.85, x+1/2, -y+0.95'
   'z+0.35, -x+0.7, y+1/4'
   'y+0.2, z+0.2, x+0.4'
   '-y+0.8, -z+0.8, -x+0.6'
   '-y+0.85, z+0.3, -x+3/4'
   'y+0.35, -z+0.9, x+0.45'
   'y+0.3, -z+0.95, -x+0.65'
   '-y+0.9, z+1/4, x+0.55'
   '-y+0.95, -z+0.85, x+1/2'
   'y+1/4, z+0.35, -x+0.7'
   'y+0.35, x+0.45, -z+0.9'
   '-y+0.85, -x+3/4, z+0.3'
   '-y+0.8, -x+0.6, -z+0.8'
   'y+0.2, x+0.4, z+0.2'
   'y+1/4, -x+0.7, z+0.35'
   '-y+0.95, x+1/2, -z+0.85'
   '-y+0.9, x+0.55, z+1/4'
   'y+0.3, -x+0.65, -z+0.95'
   'x+0.55, z+1/4, -y+0.9'
   '-x+0.65, -z+0.95, y+0.3'
   '-x+0.7, z+0.35, y+1/4'
   'x+1/2, -z+0.85, -y+0.95'
   '-x+0.6, -z+0.8, -y+0.8'
   'x+0.4, z+0.2, y+0.2'
   'x+0.45, -z+0.9, y+0.35'
   '-x+3/4, z+0.3, -y+0.85'
   'z+0.35, y+1/4, -x+0.7'
   '-z+0.85, -y+0.95, x+1/2'
   'z+1/4, -y+0.9, x+0.55'
   '-z+0.95, y+0.3, -x+0.65'
   '-z+0.9, y+0.35, x+0.45'
   'z+0.3, -y+0.85, -x+3/4'
   '-z+0.8, -y+0.8, -x+0.6'
   'z+0.2, y+0.2, x+0.4'
   'x+0.4, y+0.3, z+0.3'
   '-x+0.6, -y+0.9, -z+0.9'
   '-x+3/4, -y+0.95, z+0.2'
   'x+0.45, y+1/4, -z+0.8'
   '-x+0.65, y+0.2, -z+0.85'
   'x+0.55, -y+0.8, z+0.35'
   'x+1/2, -y+0.85, -z+0.95'
   '-x+0.7, y+0.35, z+1/4'
   'z+0.2, x+1/2, y+0.3'
   '-z+0.8, -x+0.7, -y+0.9'
   'z+0.3, -x+0.65, -y+0.95'
   '-z+0.9, x+0.55, y+1/4'
   '-z+0.95, -x+3/4, y+0.2'
   'z+1/4, x+0.45, -y+0.8'
   '-z+0.85, x+0.4, -y+0.85'
   'z+0.35, -x+0.6, y+0.35'
   'y+0.2, z+0.3, x+1/2'
   '-y+0.8, -z+0.9, -x+0.7'
   '-y+0.85, z+0.2, -x+0.65'
   'y+0.35, -z+0.8, x+0.55'
   'y+0.3, -z+0.85, -x+3/4'
   '-y+0.9, z+0.35, x+0.45'
   '-y+0.95, -z+0.95, x+0.4'
   'y+1/4, z+1/4, -x+0.6'
   'y+0.35, x+0.55, -z+0.8'
   '-y+0.85, -x+0.65, z+0.2'
   '-y+0.8, -x+0.7, -z+0.9'
   'y+0.2, x+1/2, z+0.3'
   'y+1/4, -x+0.6, z+1/4'
   '-y+0.95, x+0.4, -z+0.95'
   '-y+0.9, x+0.45, z+0.35'
   'y+0.3, -x+3/4, -z+0.85'
   'x+0.55, z+0.35, -y+0.8'
   '-x+0.65, -z+0.85, y+0.2'
   '-x+0.7, z+1/4, y+0.35'
   'x+1/2, -z+0.95, -y+0.85'
   '-x+0.6, -z+0.9, -y+0.9'
   'x+0.4, z+0.3, y+0.3'
   'x+0.45, -z+0.8, y+1/4'
   '-x+3/4, z+0.2, -y+0.95'
   'z+0.35, y+0.35, -x+0.6'
   '-z+0.85, -y+0.85, x+0.4'
   'z+1/4, -y+0.8, x+0.45'
   '-z+0.95, y+0.2, -x+3/4'
   '-z+0.9, y+1/4, x+0.55'
   'z+0.3, -y+0.95, -x+0.65'
   '-z+0.8, -y+0.9, -x+0.7'
   'z+0.2, y+0.3, x+1/2'
   'x+1/2, y+0.2, z+0.3'
   '-x+0.7, -y+0.8, -z+0.9'
   '-x+0.65, -y+0.85, z+0.2'
   'x+0.55, y+0.35, -z+0.8'
   '-x+3/4, y+0.3, -z+0.85'
   'x+0.45, -y+0.9, z+0.35'
   'x+0.4, -y+0.95, -z+0.95'
   '-x+0.6, y+1/4, z+1/4'
   'z+0.3, x+0.4, y+0.3'
   '-z+0.9, -x+0.6, -y+0.9'
   'z+0.2, -x+3/4, -y+0.95'
   '-z+0.8, x+0.45, y+1/4'
   '-z+0.85, -x+0.65, y+0.2'
   'z+0.35, x+0.55, -y+0.8'
   '-z+0.95, x+1/2, -y+0.85'
   'z+1/4, -x+0.7, y+0.35'
   'y+0.3, z+0.2, x+1/2'
   '-y+0.9, -z+0.8, -x+0.7'
   '-y+0.95, z+0.3, -x+0.65'
   'y+1/4, -z+0.9, x+0.55'
   'y+0.2, -z+0.95, -x+3/4'
   '-y+0.8, z+1/4, x+0.45'
   '-y+0.85, -z+0.85, x+0.4'
   'y+0.35, z+0.35, -x+0.6'
   'y+1/4, x+0.45, -z+0.8'
   '-y+0.95, -x+3/4, z+0.2'
   '-y+0.9, -x+0.6, -z+0.9'
   'y+0.3, x+0.4, z+0.3'
   'y+0.35, -x+0.7, z+1/4'
   '-y+0.85, x+1/2, -z+0.95'
   '-y+0.8, x+0.55, z+0.35'
   'y+0.2, -x+0.65, -z+0.85'
   'x+0.45, z+1/4, -y+0.8'
   '-x+3/4, -z+0.95, y+0.2'
   '-x+0.6, z+0.35, y+0.35'
   'x+0.4, -z+0.85, -y+0.85'
   '-x+0.7, -z+0.8, -y+0.9'
   'x+1/2, z+0.2, y+0.3'
   'x+0.55, -z+0.9, y+1/4'
   '-x+0.65, z+0.3, -y+0.95'
   'z+1/4, y+1/4, -x+0.6'
   '-z+0.95, -y+0.95, x+0.4'
   'z+0.35, -y+0.9, x+0.45'
   '-z+0.85, y+0.3, -x+3/4'
   '-z+0.8, y+0.35, x+0.55'
   'z+0.2, -y+0.85, -x+0.65'
   '-z+0.9, -y+0.8, -x+0.7'
   'z+0.3, y+0.2, x+1/2'
   'x+1/2, y+0.3, z+0.2'
   '-x+0.7, -y+0.9, -z+0.8'
   '-x+0.65, -y+0.95, z+0.3'
   'x+0.55, y+1/4, -z+0.9'
   '-x+3/4, y+0.2, -z+0.95'
   'x+0.45, -y+0.8, z+1/4'
   'x+0.4, -y+0.85, -z+0.85'
   '-x+0.6, y+0.35, z+0.35'
   'z+0.3, x+1/2, y+0.2'
   '-z+0.9, -x+0.7, -y+0.8'
   'z+0.2, -x+0.65, -y+0.85'
   '-z+0.8, x+0.55, y+0.35'
   '-z+0.85, -x+3/4, y+0.3'
   'z+0.35, x+0.45, -y+0.9'
   '-z+0.95, x+0.4, -y+0.95'
   'z+1/4, -x+0.6, y+1/4'
   'y+0.3, z+0.3, x+0.4'
   '-y+0.9, -z+0.9, -x+0.6'
   '-y+0.95, z+0.2, -x+3/4'
   'y+1/4, -z+0.8, x+0.45'
   'y+0.2, -z+0.85, -x+0.65'
   '-y+0.8, z+0.35, x+0.55'
   '-y+0.85, -z+0.95, x+1/2'
   'y+0.35, z+1/4, -x+0.7'
   'y+1/4, x+0.55, -z+0.9'
   '-y+0.95, -x+0.65, z+0.3'
   '-y+0.9, -x+0.7, -z+0.8'
   'y+0.3, x+1/2, z+0.2'
   'y+0.35, -x+0.6, z+0.35'
   '-y+0.85, x+0.4, -z+0.85'
   '-y+0.8, x+0.45, z+1/4'
   'y+0.2, -x+3/4, -z+0.95'
   'x+0.45, z+0.35, -y+0.9'
   '-x+3/4, -z+0.85, y+0.3'
   '-x+0.6, z+1/4, y+1/4'
   'x+0.4, -z+0.95, -y+0.95'
   '-x+0.7, -z+0.9, -y+0.8'
   'x+1/2, z+0.3, y+0.2'
   'x+0.55, -z+0.8, y+0.35'
   '-x+0.65, z+0.2, -y+0.85'
   'z+1/4, y+0.35, -x+0.7'
   '-z+0.95, -y+0.85, x+1/2'
   'z+0.35, -y+0.8, x+0.55'
   '-z+0.85, y+0.2, -x+0.65'
   '-z+0.8, y+1/4, x+0.45'
   'z+0.2, -y+0.95, -x+3/4'
   '-z+0.9, -y+0.9, -x+0.6'
   'z+0.3, y+0.3, x+0.4'
   'x+0.4, y+0.2, z+0.4'
   '-x+0.6, -y+0.8, -z+0.6'
   '-x+3/4, -y+0.85, z+1/2'
   'x+0.45, y+0.35, -z+0.7'
   '-x+0.65, y+0.3, -z+3/4'
   'x+0.55, -y+0.9, z+0.45'
   'x+1/2, -y+0.95, -z+0.65'
   '-x+0.7, y+1/4, z+0.55'
   'z+0.4, x+0.4, y+0.2'
   '-z+0.6, -x+0.6, -y+0.8'
   'z+1/2, -x+3/4, -y+0.85'
   '-z+0.7, x+0.45, y+0.35'
   '-z+3/4, -x+0.65, y+0.3'
   'z+0.45, x+0.55, -y+0.9'
   '-z+0.65, x+1/2, -y+0.95'
   'z+0.55, -x+0.7, y+1/4'
   'y+0.2, z+0.4, x+0.4'
   '-y+0.8, -z+0.6, -x+0.6'
   '-y+0.85, z+1/2, -x+3/4'
   'y+0.35, -z+0.7, x+0.45'
   'y+0.3, -z+3/4, -x+0.65'
   '-y+0.9, z+0.45, x+0.55'
   '-y+0.95, -z+0.65, x+1/2'
   'y+1/4, z+0.55, -x+0.7'
   'y+0.35, x+0.45, -z+0.7'
   '-y+0.85, -x+3/4, z+1/2'
   '-y+0.8, -x+0.6, -z+0.6'
   'y+0.2, x+0.4, z+0.4'
   'y+1/4, -x+0.7, z+0.55'
   '-y+0.95, x+1/2, -z+0.65'
   '-y+0.9, x+0.55, z+0.45'
   'y+0.3, -x+0.65, -z+3/4'
   'x+0.55, z+0.45, -y+0.9'
   '-x+0.65, -z+3/4, y+0.3'
   '-x+0.7, z+0.55, y+1/4'
   'x+1/2, -z+0.65, -y+0.95'
   '-x+0.6, -z+0.6, -y+0.8'
   'x+0.4, z+0.4, y+0.2'
   'x+0.45, -z+0.7, y+0.35'
   '-x+3/4, z+1/2, -y+0.85'
   'z+0.55, y+1/4, -x+0.7'
   '-z+0.65, -y+0.95, x+1/2'
   'z+0.45, -y+0.9, x+0.55'
   '-z+3/4, y+0.3, -x+0.65'
   '-z+0.7, y+0.35, x+0.45'
   'z+1/2, -y+0.85, -x+3/4'
   '-z+0.6, -y+0.8, -x+0.6'
   'z+0.4, y+0.2, x+0.4'
   'x+0.4, y+0.3, z+1/2'
   '-x+0.6, -y+0.9, -z+0.7'
   '-x+3/4, -y+0.95, z+0.4'
   'x+0.45, y+1/4, -z+0.6'
   '-x+0.65, y+0.2, -z+0.65'
   'x+0.55, -y+0.8, z+0.55'
   'x+1/2, -y+0.85, -z+3/4'
   '-x+0.7, y+0.35, z+0.45'
   'z+0.4, x+1/2, y+0.3'
   '-z+0.6, -x+0.7, -y+0.9'
   'z+1/2, -x+0.65, -y+0.95'
   '-z+0.7, x+0.55, y+1/4'
   '-z+3/4, -x+3/4, y+0.2'
   'z+0.45, x+0.45, -y+0.8'
   '-z+0.65, x+0.4, -y+0.85'
   'z+0.55, -x+0.6, y+0.35'
   'y+0.2, z+1/2, x+1/2'
   '-y+0.8, -z+0.7, -x+0.7'
   '-y+0.85, z+0.4, -x+0.65'
   'y+0.35, -z+0.6, x+0.55'
   'y+0.3, -z+0.65, -x+3/4'
   '-y+0.9, z+0.55, x+0.45'
   '-y+0.95, -z+3/4, x+0.4'
   'y+1/4, z+0.45, -x+0.6'
   'y+0.35, x+0.55, -z+0.6'
   '-y+0.85, -x+0.65, z+0.4'
   '-y+0.8, -x+0.7, -z+0.7'
   'y+0.2, x+1/2, z+1/2'
   'y+1/4, -x+0.6, z+0.45'
   '-y+0.95, x+0.4, -z+3/4'
   '-y+0.9, x+0.45, z+0.55'
   'y+0.3, -x+3/4, -z+0.65'
   'x+0.55, z+0.55, -y+0.8'
   '-x+0.65, -z+0.65, y+0.2'
   '-x+0.7, z+0.45, y+0.35'
   'x+1/2, -z+3/4, -y+0.85'
   '-x+0.6, -z+0.7, -y+0.9'
   'x+0.4, z+1/2, y+0.3'
   'x+0.45, -z+0.6, y+1/4'
   '-x+3/4, z+0.4, -y+0.95'
   'z+0.55, y+0.35, -x+0.6'
   '-z+0.65, -y+0.85, x+0.4'
   'z+0.45, -y+0.8, x+0.45'
   '-z+3/4, y+0.2, -x+3/4'
   '-z+0.7, y+1/4, x+0.55'
   'z+1/2, -y+0.95, -x+0.65'
   '-z+0.6, -y+0.9, -x+0.7'
   'z+0.4, y+0.3, x+1/2'
   'x+1/2, y+0.2, z+1/2'
   '-x+0.7, -y+0.8, -z+0.7'
   '-x+0.65, -y+0.85, z+0.4'
   'x+0.55, y+0.35, -z+0.6'
   '-x+3/4, y+0.3, -z+0.65'
   'x+0.45, -y+0.9, z+0.55'
   'x+0.4, -y+0.95, -z+3/4'
   '-x+0.6, y+1/4, z+0.45'
   'z+1/2, x+0.4, y+0.3'
   '-z+0.7, -x+0.6, -y+0.9'
   'z+0.4, -x+3/4, -y+0.95'
   '-z+0.6, x+0.45, y+1/4'
   '-z+0.65, -x+0.65, y+0.2'
   'z+0.55, x+0.55, -y+0.8'
   '-z+3/4, x+1/2, -y+0.85'
   'z+0.45, -x+0.7, y+0.35'
   'y+0.3, z+0.4, x+1/2'
   '-y+0.9, -z+0.6, -x+0.7'
   '-y+0.95, z+1/2, -x+0.65'
   'y+1/4, -z+0.7, x+0.55'
   'y+0.2, -z+3/4, -x+3/4'
   '-y+0.8, z+0.45, x+0.45'
   '-y+0.85, -z+0.65, x+0.4'
   'y+0.35, z+0.55, -x+0.6'
   'y+1/4, x+0.45, -z+0.6'
   '-y+0.95, -x+3/4, z+0.4'
   '-y+0.9, -x+0.6, -z+0.7'
   'y+0.3, x+0.4, z+1/2'
   'y+0.35, -x+0.7, z+0.45'
   '-y+0.85, x+1/2, -z+3/4'
   '-y+0.8, x+0.55, z+0.55'
   'y+0.2, -x+0.65, -z+0.65'
   'x+0.45, z+0.45, -y+0.8'
   '-x+3/4, -z+3/4, y+0.2'
   '-x+0.6, z+0.55, y+0.35'
   'x+0.4, -z+0.65, -y+0.85'
   '-x+0.7, -z+0.6, -y+0.9'
   'x+1/2, z+0.4, y+0.3'
   'x+0.55, -z+0.7, y+1/4'
   '-x+0.65, z+1/2, -y+0.95'
   'z+0.45, y+1/4, -x+0.6'
   '-z+3/4, -y+0.95, x+0.4'
   'z+0.55, -y+0.9, x+0.45'
   '-z+0.65, y+0.3, -x+3/4'
   '-z+0.6, y+0.35, x+0.55'
   'z+0.4, -y+0.85, -x+0.65'
   '-z+0.7, -y+0.8, -x+0.7'
   'z+1/2, y+0.2, x+1/2'
   'x+1/2, y+0.3, z+0.4'
   '-x+0.7, -y+0.9, -z+0.6'
   '-x+0.65, -y+0.95, z+1/2'
   'x+0.55, y+1/4, -z+0.7'
   '-x+3/4, y+0.2, -z+3/4'
   'x+0.45, -y+0.8, z+0.45'
   'x+0.4, -y+0.85, -z+0.65'
   '-x+0.6, y+0.35, z+0.55'
   'z+1/2, x+1/2, y+0.2'
   '-z+0.7, -x+0.7, -y+0.8'
   'z+0.4, -x+0.65, -y+0.85'
   '-z+0.6, x+0.55, y+0.35'
   '-z+0.65, -x+3/4, y+0.3'
   'z+0.55, x+0.45, -y+0.9'
   '-z+3/4, x+0.4, -y+0.95'
   'z+0.45, -x+0.6, y+1/4'
   'y+0.3, z+1/2, x+0.4'
   '-y+0.9, -z+0.7, -x+0.6'
   '-y+0.95, z+0.4, -x+3/4'
   'y+1/4, -z+0.6, x+0.45'
   'y+0.2, -z+0.65, -x+0.65'
   '-y+0.8, z+0.55, x+0.55'
   '-y+0.85, -z+3/4, x+1/2'
   'y+0.35, z+0.45, -x+0.7'
   'y+1/4, x+0.55, -z+0.7'
   '-y+0.95, -x+0.65, z+1/2'
   '-y+0.9, -x+0.7, -z+0.6'
   'y+0.3, x+1/2, z+0.4'
   'y+0.35, -x+0.6, z+0.55'
   '-y+0.85, x+0.4, -z+0.65'
   '-y+0.8, x+0.45, z+0.45'
   'y+0.2, -x+3/4, -z+3/4'
   'x+0.45, z+0.55, -y+0.9'
   '-x+3/4, -z+0.65, y+0.3'
   '-x+0.6, z+0.45, y+1/4'
   'x+0.4, -z+3/4, -y+0.95'
   '-x+0.7, -z+0.7, -y+0.8'
   'x+1/2, z+1/2, y+0.2'
   'x+0.55, -z+0.6, y+0.35'
   '-x+0.65, z+0.4, -y+0.85'
   'z+0.45, y+0.35, -x+0.7'
   '-z+3/4, -y+0.85, x+1/2'
   'z+0.55, -y+0.8, x+0.55'
   '-z+0.65, y+0.2, -x+0.65'
   '-z+0.6, y+1/4, x+0.45'
   'z+0.4, -y+0.95, -x+3/4'
   '-z+0.7, -y+0.9, -x+0.6'
   'z+1/2, y+0.3, x+0.4'
   'x+0.4, y+0.2, z+0.6'
   '-x+0.6, -y+0.8, -z+0.4'
   '-x+3/4, -y+0.85, z+0.7'
   'x+0.45, y+0.35, -z+1/2'
   '-x+0.65, y+0.3, -z+0.55'
   'x+0.55, -y+0.9, z+0.65'
   'x+1/2, -y+0.95, -z+0.45'
   '-x+0.7, y+1/4, z+3/4'
   'z+0.6, x+0.4, y+0.2'
   '-z+0.4, -x+0.6, -y+0.8'
   'z+0.7, -x+3/4, -y+0.85'
   '-z+1/2, x+0.45, y+0.35'
   '-z+0.55, -x+0.65, y+0.3'
   'z+0.65, x+0.55, -y+0.9'
   '-z+0.45, x+1/2, -y+0.95'
   'z+3/4, -x+0.7, y+1/4'
   'y+0.2, z+0.6, x+0.4'
   '-y+0.8, -z+0.4, -x+0.6'
   '-y+0.85, z+0.7, -x+3/4'
   'y+0.35, -z+1/2, x+0.45'
   'y+0.3, -z+0.55, -x+0.65'
   '-y+0.9, z+0.65, x+0.55'
   '-y+0.95, -z+0.45, x+1/2'
   'y+1/4, z+3/4, -x+0.7'
   'y+0.35, x+0.45, -z+1/2'
   '-y+0.85, -x+3/4, z+0.7'
   '-y+0.8, -x+0.6, -z+0.4'
   'y+0.2, x+0.4, z+0.6'
   'y+1/4, -x+0.7, z+3/4'
   '-y+0.95, x+1/2, -z+0.45'
   '-y+0.9, x+0.55, z+0.65'
   'y+0.3, -x+0.65, -z+0.55'
   'x+0.55, z+0.65, -y+0.9'
   '-x+0.65, -z+0.55, y+0.3'
   '-x+0.7, z+3/4, y+1/4'
   'x+1/2, -z+0.45, -y+0.95'
   '-x+0.6, -z+0.4, -y+0.8'
   'x+0.4, z+0.6, y+0.2'
   'x+0.45, -z+1/2, y+0.35'
   '-x+3/4, z+0.7, -y+0.85'
   'z+3/4, y+1/4, -x+0.7'
   '-z+0.45, -y+0.95, x+1/2'
   'z+0.65, -y+0.9, x+0.55'
   '-z+0.55, y+0.3, -x+0.65'
   '-z+1/2, y+0.35, x+0.45'
   'z+0.7, -y+0.85, -x+3/4'
   '-z+0.4, -y+0.8, -x+0.6'
   'z+0.6, y+0.2, x+0.4'
   'x+0.4, y+0.3, z+0.7'
   '-x+0.6, -y+0.9, -z+1/2'
   '-x+3/4, -y+0.95, z+0.6'
   'x+0.45, y+1/4, -z+0.4'
   '-x+0.65, y+0.2, -z+0.45'
   'x+0.55, -y+0.8, z+3/4'
   'x+1/2, -y+0.85, -z+0.55'
   '-x+0.7, y+0.35, z+0.65'
   'z+0.6, x+1/2, y+0.3'
   '-z+0.4, -x+0.7, -y+0.9'
   'z+0.7, -x+0.65, -y+0.95'
   '-z+1/2, x+0.55, y+1/4'
   '-z+0.55, -x+3/4, y+0.2'
   'z+0.65, x+0.45, -y+0.8'
   '-z+0.45, x+0.4, -y+0.85'
   'z+3/4, -x+0.6, y+0.35'
   'y+0.2, z+0.7, x+1/2'
   '-y+0.8, -z+1/2, -x+0.7'
   '-y+0.85, z+0.6, -x+0.65'
   'y+0.35, -z+0.4, x+0.55'
   'y+0.3, -z+0.45, -x+3/4'
   '-y+0.9, z+3/4, x+0.45'
   '-y+0.95, -z+0.55, x+0.4'
   'y+1/4, z+0.65, -x+0.6'
   'y+0.35, x+0.55, -z+0.4'
   '-y+0.85, -x+0.65, z+0.6'
   '-y+0.8, -x+0.7, -z+1/2'
   'y+0.2, x+1/2, z+0.7'
   'y+1/4, -x+0.6, z+0.65'
   '-y+0.95, x+0.4, -z+0.55'
   '-y+0.9, x+0.45, z+3/4'
   'y+0.3, -x+3/4, -z+0.45'
   'x+0.55, z+3/4, -y+0.8'
   '-x+0.65, -z+0.45, y+0.2'
   '-x+0.7, z+0.65, y+0.35'
   'x+1/2, -z+0.55, -y+0.85'
   '-x+0.6, -z+1/2, -y+0.9'
   'x+0.4, z+0.7, y+0.3'
   'x+0.45, -z+0.4, y+1/4'
   '-x+3/4, z+0.6, -y+0.95'
   'z+3/4, y+0.35, -x+0.6'
   '-z+0.45, -y+0.85, x+0.4'
   'z+0.65, -y+0.8, x+0.45'
   '-z+0.55, y+0.2, -x+3/4'
   '-z+1/2, y+1/4, x+0.55'
   'z+0.7, -y+0.95, -x+0.65'
   '-z+0.4, -y+0.9, -x+0.7'
   'z+0.6, y+0.3, x+1/2'
   'x+1/2, y+0.2, z+0.7'
   '-x+0.7, -y+0.8, -z+1/2'
   '-x+0.65, -y+0.85, z+0.6'
   'x+0.55, y+0.35, -z+0.4'
   '-x+3/4, y+0.3, -z+0.45'
   'x+0.45, -y+0.9, z+3/4'
   'x+0.4, -y+0.95, -z+0.55'
   '-x+0.6, y+1/4, z+0.65'
   'z+0.7, x+0.4, y+0.3'
   '-z+1/2, -x+0.6, -y+0.9'
   'z+0.6, -x+3/4, -y+0.95'
   '-z+0.4, x+0.45, y+1/4'
   '-z+0.45, -x+0.65, y+0.2'
   'z+3/4, x+0.55, -y+0.8'
   '-z+0.55, x+1/2, -y+0.85'
   'z+0.65, -x+0.7, y+0.35'
   'y+0.3, z+0.6, x+1/2'
   '-y+0.9, -z+0.4, -x+0.7'
   '-y+0.95, z+0.7, -x+0.65'
   'y+1/4, -z+1/2, x+0.55'
   'y+0.2, -z+0.55, -x+3/4'
   '-y+0.8, z+0.65, x+0.45'
   '-y+0.85, -z+0.45, x+0.4'
   'y+0.35, z+3/4, -x+0.6'
   'y+1/4, x+0.45, -z+0.4'
   '-y+0.95, -x+3/4, z+0.6'
   '-y+0.9, -x+0.6, -z+1/2'
   'y+0.3, x+0.4, z+0.7'
   'y+0.35, -x+0.7, z+0.65'
   '-y+0.85, x+1/2, -z+0.55'
   '-y+0.8, x+0.55, z+3/4'
   'y+0.2, -x+0.65, -z+0.45'
   'x+0.45, z+0.65, -y+0.8'
   '-x+3/4, -z+0.55, y+0.2'
   '-x+0.6, z+3/4, y+0.35'
   'x+0.4, -z+0.45, -y+0.85'
   '-x+0.7, -z+0.4, -y+0.9'
   'x+1/2, z+0.6, y+0.3'
   'x+0.55, -z+1/2, y+1/4'
   '-x+0.65, z+0.7, -y+0.95'
   'z+0.65, y+1/4, -x+0.6'
   '-z+0.55, -y+0.95, x+0.4'
   'z+3/4, -y+0.9, x+0.45'
   '-z+0.45, y+0.3, -x+3/4'
   '-z+0.4, y+0.35, x+0.55'
   'z+0.6, -y+0.85, -x+0.65'
   '-z+1/2, -y+0.8, -x+0.7'
   'z+0.7, y+0.2, x+1/2'
   'x+1/2, y+0.3, z+0.6'
   '-x+0.7, -y+0.9, -z+0.4'
   '-x+0.65, -y+0.95, z+0.7'
   'x+0.55, y+1/4, -z+1/2'
   '-x+3/4, y+0.2, -z+0.55'
   'x+0.45, -y+0.8, z+0.65'
   'x+0.4, -y+0.85, -z+0.45'
   '-x+0.6, y+0.35, z+3/4'
   'z+0.7, x+1/2, y+0.2'
   '-z+1/2, -x+0.7, -y+0.8'
   'z+0.6, -x+0.65, -y+0.85'
   '-z+0.4, x+0.55, y+0.35'
   '-z+0.45, -x+3/4, y+0.3'
   'z+3/4, x+0.45, -y+0.9'
   '-z+0.55, x+0.4, -y+0.95'
   'z+0.65, -x+0.6, y+1/4'
   'y+0.3, z+0.7, x+0.4'
   '-y+0.9, -z+1/2, -x+0.6'
   '-y+0.95, z+0.6, -x+3/4'
   'y+1/4, -z+0.4, x+0.45'
   'y+0.2, -z+0.45, -x+0.65'
   '-y+0.8, z+3/4, x+0.55'
   '-y+0.85, -z+0.55, x+1/2'
   'y+0.35, z+0.65, -x+0.7'
   'y+1/4, x+0.55, -z+1/2'
   '-y+0.95, -x+0.65, z+0.7'
   '-y+0.9, -x+0.7, -z+0.4'
   'y+0.3, x+1/2, z+0.6'
   'y+0.35, -x+0.6, z+3/4'
   '-y+0.85, x+0.4, -z+0.45'
   '-y+0.8, x+0.45, z+0.65'
   'y+0.2, -x+3/4, -z+0.55'
   'x+0.45, z+3/4, -y+0.9'
   '-x+3/4, -z+0.45, y+0.3'
   '-x+0.6, z+0.65, y+1/4'
   'x+0.4, -z+0.55, -y+0.95'
   '-x+0.7, -z+1/2, -y+0.8'
   'x+1/2, z+0.7, y+0.2'
   'x+0.55, -z+0.4, y+0.35'
   '-x+0.65, z+0.6, -y+0.85'
   'z+0.65, y+0.35, -x+0.7'
   '-z+0.55, -y+0.85, x+1/2'
   'z+3/4, -y+0.8, x+0.55'
   '-z+0.45, y+0.2, -x+0.65'
   '-z+0.4, y+1/4, x+0.45'
   'z+0.6, -y+0.95, -x+3/4'
   '-z+1/2, -y+0.9, -x+0.6'
   'z+0.7, y+0.3, x+0.4'
   'x+0.4, y+0.2, z+0.8'
   '-x+0.6, -y+0.8, -z+0.2'
   '-x+3/4, -y+0.85, z+0.9'
   'x+0.45, y+0.35, -z+0.3'
   '-x+0.65, y+0.3, -z+0.35'
   'x+0.55, -y+0.9, z+0.85'
   'x+1/2, -y+0.95, -z+1/4'
   '-x+0.7, y+1/4, z+0.95'
   'z+0.8, x+0.4, y+0.2'
   '-z+0.2, -x+0.6, -y+0.8'
   'z+0.9, -x+3/4, -y+0.85'
   '-z+0.3, x+0.45, y+0.35'
   '-z+0.35, -x+0.65, y+0.3'
   'z+0.85, x+0.55, -y+0.9'
   '-z+1/4, x+1/2, -y+0.95'
   'z+0.95, -x+0.7, y+1/4'
   'y+0.2, z+0.8, x+0.4'
   '-y+0.8, -z+0.2, -x+0.6'
   '-y+0.85, z+0.9, -x+3/4'
   'y+0.35, -z+0.3, x+0.45'
   'y+0.3, -z+0.35, -x+0.65'
   '-y+0.9, z+0.85, x+0.55'
   '-y+0.95, -z+1/4, x+1/2'
   'y+1/4, z+0.95, -x+0.7'
   'y+0.35, x+0.45, -z+0.3'
   '-y+0.85, -x+3/4, z+0.9'
   '-y+0.8, -x+0.6, -z+0.2'
   'y+0.2, x+0.4, z+0.8'
   'y+1/4, -x+0.7, z+0.95'
   '-y+0.95, x+1/2, -z+1/4'
   '-y+0.9, x+0.55, z+0.85'
   'y+0.3, -x+0.65, -z+0.35'
   'x+0.55, z+0.85, -y+0.9'
   '-x+0.65, -z+0.35, y+0.3'
   '-x+0.7, z+0.95, y+1/4'
   'x+1/2, -z+1/4, -y+0.95'
   '-x+0.6, -z+0.2, -y+0.8'
   'x+0.4, z+0.8, y+0.2'
   'x+0.45, -z+0.3, y+0.35'
   '-x+3/4, z+0.9, -y+0.85'
   'z+0.95, y+1/4, -x+0.7'
   '-z+1/4, -y+0.95, x+1/2'
   'z+0.85, -y+0.9, x+0.55'
   '-z+0.35, y+0.3, -x+0.65'
   '-z+0.3, y+0.35, x+0.45'
   'z+0.9, -y+0.85, -x+3/4'
   '-z+0.2, -y+0.8, -x+0.6'
   'z+0.8, y+0.2, x+0.4'
   'x+0.4, y+0.3, z+0.9'
   '-x+0.6, -y+0.9, -z+0.3'
   '-x+3/4, -y+0.95, z+0.8'
   'x+0.45, y+1/4, -z+0.2'
   '-x+0.65, y+0.2, -z+1/4'
   'x+0.55, -y+0.8, z+0.95'
   'x+1/2, -y+0.85, -z+0.35'
   '-x+0.7, y+0.35, z+0.85'
   'z+0.8, x+1/2, y+0.3'
   '-z+0.2, -x+0.7, -y+0.9'
   'z+0.9, -x+0.65, -y+0.95'
   '-z+0.3, x+0.55, y+1/4'
   '-z+0.35, -x+3/4, y+0.2'
   'z+0.85, x+0.45, -y+0.8'
   '-z+1/4, x+0.4, -y+0.85'
   'z+0.95, -x+0.6, y+0.35'
   'y+0.2, z+0.9, x+1/2'
   '-y+0.8, -z+0.3, -x+0.7'
   '-y+0.85, z+0.8, -x+0.65'
   'y+0.35, -z+0.2, x+0.55'
   'y+0.3, -z+1/4, -x+3/4'
   '-y+0.9, z+0.95, x+0.45'
   '-y+0.95, -z+0.35, x+0.4'
   'y+1/4, z+0.85, -x+0.6'
   'y+0.35, x+0.55, -z+0.2'
   '-y+0.85, -x+0.65, z+0.8'
   '-y+0.8, -x+0.7, -z+0.3'
   'y+0.2, x+1/2, z+0.9'
   'y+1/4, -x+0.6, z+0.85'
   '-y+0.95, x+0.4, -z+0.35'
   '-y+0.9, x+0.45, z+0.95'
   'y+0.3, -x+3/4, -z+1/4'
   'x+0.55, z+0.95, -y+0.8'
   '-x+0.65, -z+1/4, y+0.2'
   '-x+0.7, z+0.85, y+0.35'
   'x+1/2, -z+0.35, -y+0.85'
   '-x+0.6, -z+0.3, -y+0.9'
   'x+0.4, z+0.9, y+0.3'
   'x+0.45, -z+0.2, y+1/4'
   '-x+3/4, z+0.8, -y+0.95'
   'z+0.95, y+0.35, -x+0.6'
   '-z+1/4, -y+0.85, x+0.4'
   'z+0.85, -y+0.8, x+0.45'
   '-z+0.35, y+0.2, -x+3/4'
   '-z+0.3, y+1/4, x+0.55'
   'z+0.9, -y+0.95, -x+0.65'
   '-z+0.2, -y+0.9, -x+0.7'
   'z+0.8, y+0.3, x+1/2'
   'x+1/2, y+0.2, z+0.9'
   '-x+0.7, -y+0.8, -z+0.3'
   '-x+0.65, -y+0.85, z+0.8'
   'x+0.55, y+0.35, -z+0.2'
   '-x+3/4, y+0.3, -z+1/4'
   'x+0.45, -y+0.9, z+0.95'
   'x+0.4, -y+0.95, -z+0.35'
   '-x+0.6, y+1/4, z+0.85'
   'z+0.9, x+0.4, y+0.3'
   '-z+0.3, -x+0.6, -y+0.9'
   'z+0.8, -x+3/4, -y+0.95'
   '-z+0.2, x+0.45, y+1/4'
   '-z+1/4, -x+0.65, y+0.2'
   'z+0.95, x+0.55, -y+0.8'
   '-z+0.35, x+1/2, -y+0.85'
   'z+0.85, -x+0.7, y+0.35'
   'y+0.3, z+0.8, x+1/2'
   '-y+0.9, -z+0.2, -x+0.7'
   '-y+0.95, z+0.9, -x+0.65'
   'y+1/4, -z+0.3, x+0.55'
   'y+0.2, -z+0.35, -x+3/4'
   '-y+0.8, z+0.85, x+0.45'
   '-y+0.85, -z+1/4, x+0.4'
   'y+0.35, z+0.95, -x+0.6'
   'y+1/4, x+0.45, -z+0.2'
   '-y+0.95, -x+3/4, z+0.8'
   '-y+0.9, -x+0.6, -z+0.3'
   'y+0.3, x+0.4, z+0.9'
   'y+0.35, -x+0.7, z+0.85'
   '-y+0.85, x+1/2, -z+0.35'
   '-y+0.8, x+0.55, z+0.95'
   'y+0.2, -x+0.65, -z+1/4'
   'x+0.45, z+0.85, -y+0.8'
   '-x+3/4, -z+0.35, y+0.2'
   '-x+0.6, z+0.95, y+0.35'
   'x+0.4, -z+1/4, -y+0.85'
   '-x+0.7, -z+0.2, -y+0.9'
   'x+1/2, z+0.8, y+0.3'
   'x+0.55, -z+0.3, y+1/4'
   '-x+0.65, z+0.9, -y+0.95'
   'z+0.85, y+1/4, -x+0.6'
   '-z+0.35, -y+0.95, x+0.4'
   'z+0.95, -y+0.9, x+0.45'
   '-z+1/4, y+0.3, -x+3/4'
   '-z+0.2, y+0.35, x+0.55'
   'z+0.8, -y+0.85, -x+0.65'
   '-z+0.3, -y+0.8, -x+0.7'
   'z+0.9, y+0.2, x+1/2'
   'x+1/2, y+0.3, z+0.8'
   '-x+0.7, -y+0.9, -z+0.2'
   '-x+0.65, -y+0.95, z+0.9'
   'x+0.55, y+1/4, -z+0.3'
   '-x+3/4, y+0.2, -z+0.35'
   'x+0.45, -y+0.8, z+0.85'
   'x+0.4, -y+0.85, -z+1/4'
   '-x+0.6, y+0.35, z+0.95'
   'z+0.9, x+1/2, y+0.2'
   '-z+0.3, -x+0.7, -y+0.8'
   'z+0.8, -x+0.65, -y+0.85'
   '-z+0.2, x+0.55, y+0.35'
   '-z+1/4, -x+3/4, y+0.3'
   'z+0.95, x+0.45, -y+0.9'
   '-z+0.35, x+0.4, -y+0.95'
   'z+0.85, -x+0.6, y+1/4'
   'y+0.3, z+0.9, x+0.4'
   '-y+0.9, -z+0.3, -x+0.6'
   '-y+0.95, z+0.8, -x+3/4'
   'y+1/4, -z+0.2, x+0.45'
   'y+0.2, -z+1/4, -x+0.65'
   '-y+0.8, z+0.95, x+0.55'
   '-y+0.85, -z+0.35, x+1/2'
   'y+0.35, z+0.85, -x+0.7'
   'y+1/4, x+0.55, -z+0.3'
   '-y+0.95, -x+0.65, z+0.9'
   '-y+0.9, -x+0.7, -z+0.2'
   'y+0.3, x+1/2, z+0.8'
   'y+0.35, -x+0.6, z+0.95'
   '-y+0.85, x+0.4, -z+1/4'
   '-y+0.8, x+0.45, z+0.85'
   'y+0.2, -x+3/4, -z+0.35'
   'x+0.45, z+0.95, -y+0.9'
   '-x+3/4, -z+1/4, y+0.3'
   '-x+0.6, z+0.85, y+1/4'
   'x+0.4, -z+0.35, -y+0.95'
   '-x+0.7, -z+0.3, -y+0.8'
   'x+1/2, z+0.9, y+0.2'
   'x+0.55, -z+0.2, y+0.35'
   '-x+0.65, z+0.8, -y+0.85'
   'z+0.85, y+0.35, -x+0.7'
   '-z+0.35, -y+0.85, x+1/2'
   'z+0.95, -y+0.8, x+0.55'
   '-z+1/4, y+0.2, -x+0.65'
   '-z+0.2, y+1/4, x+0.45'
   'z+0.8, -y+0.95, -x+3/4'
   '-z+0.3, -y+0.9, -x+0.6'
   'z+0.9, y+0.3, x+0.4'
   'x+0.4, y+0.4, z'
   '-x+0.6, -y+0.6, -z'
   '-x+3/4, -y+0.65, z+0.1'
   'x+0.45, y+0.55, -z+0.1'
   '-x+0.65, y+1/2, -z+0.15'
   'x+0.55, -y+0.7, z+0.05'
   'x+1/2, -y+3/4, -z+0.05'
   '-x+0.7, y+0.45, z+0.15'
   'z, x+0.4, y+0.4'
   '-z, -x+0.6, -y+0.6'
   'z+0.1, -x+3/4, -y+0.65'
   '-z+0.1, x+0.45, y+0.55'
   '-z+0.15, -x+0.65, y+1/2'
   'z+0.05, x+0.55, -y+0.7'
   '-z+0.05, x+1/2, -y+3/4'
   'z+0.15, -x+0.7, y+0.45'
   'y+0.4, z, x+0.4'
   '-y+0.6, -z, -x+0.6'
   '-y+0.65, z+0.1, -x+3/4'
   'y+0.55, -z+0.1, x+0.45'
   'y+1/2, -z+0.15, -x+0.65'
   '-y+0.7, z+0.05, x+0.55'
   '-y+3/4, -z+0.05, x+1/2'
   'y+0.45, z+0.15, -x+0.7'
   'y+0.55, x+0.45, -z+0.1'
   '-y+0.65, -x+3/4, z+0.1'
   '-y+0.6, -x+0.6, -z'
   'y+0.4, x+0.4, z'
   'y+0.45, -x+0.7, z+0.15'
   '-y+3/4, x+1/2, -z+0.05'
   '-y+0.7, x+0.55, z+0.05'
   'y+1/2, -x+0.65, -z+0.15'
   'x+0.55, z+0.05, -y+0.7'
   '-x+0.65, -z+0.15, y+1/2'
   '-x+0.7, z+0.15, y+0.45'
   'x+1/2, -z+0.05, -y+3/4'
   '-x+0.6, -z, -y+0.6'
   'x+0.4, z, y+0.4'
   'x+0.45, -z+0.1, y+0.55'
   '-x+3/4, z+0.1, -y+0.65'
   'z+0.15, y+0.45, -x+0.7'
   '-z+0.05, -y+3/4, x+1/2'
   'z+0.05, -y+0.7, x+0.55'
   '-z+0.15, y+1/2, -x+0.65'
   '-z+0.1, y+0.55, x+0.45'
   'z+0.1, -y+0.65, -x+3/4'
   '-z, -y+0.6, -x+0.6'
   'z, y+0.4, x+0.4'
   'x+0.4, y+1/2, z+0.1'
   '-x+0.6, -y+0.7, -z+0.1'
   '-x+3/4, -y+3/4, z'
   'x+0.45, y+0.45, -z'
   '-x+0.65, y+0.4, -z+0.05'
   'x+0.55, -y+0.6, z+0.15'
   'x+1/2, -y+0.65, -z+0.15'
   '-x+0.7, y+0.55, z+0.05'
   'z, x+1/2, y+1/2'
   '-z, -x+0.7, -y+0.7'
   'z+0.1, -x+0.65, -y+3/4'
   '-z+0.1, x+0.55, y+0.45'
   '-z+0.15, -x+3/4, y+0.4'
   'z+0.05, x+0.45, -y+0.6'
   '-z+0.05, x+0.4, -y+0.65'
   'z+0.15, -x+0.6, y+0.55'
   'y+0.4, z+0.1, x+1/2'
   '-y+0.6, -z+0.1, -x+0.7'
   '-y+0.65, z, -x+0.65'
   'y+0.55, -z, x+0.55'
   'y+1/2, -z+0.05, -x+3/4'
   '-y+0.7, z+0.15, x+0.45'
   '-y+3/4, -z+0.15, x+0.4'
   'y+0.45, z+0.05, -x+0.6'
   'y+0.55, x+0.55, -z'
   '-y+0.65, -x+0.65, z'
   '-y+0.6, -x+0.7, -z+0.1'
   'y+0.4, x+1/2, z+0.1'
   'y+0.45, -x+0.6, z+0.05'
   '-y+3/4, x+0.4, -z+0.15'
   '-y+0.7, x+0.45, z+0.15'
   'y+1/2, -x+3/4, -z+0.05'
   'x+0.55, z+0.15, -y+0.6'
   '-x+0.65, -z+0.05, y+0.4'
   '-x+0.7, z+0.05, y+0.55'
   'x+1/2, -z+0.15, -y+0.65'
   '-x+0.6, -z+0.1, -y+0.7'
   'x+0.4, z+0.1, y+1/2'
   'x+0.45, -z, y+0.45'
   '-x+3/4, z, -y+3/4'
   'z+0.15, y+0.55, -x+0.6'
   '-z+0.05, -y+0.65, x+0.4'
   'z+0.05, -y+0.6, x+0.45'
   '-z+0.15, y+0.4, -x+3/4'
   '-z+0.1, y+0.45, x+0.55'
   'z+0.1, -y+3/4, -x+0.65'
   '-z, -y+0.7, -x+0.7'
   'z, y+1/2, x+1/2'
   'x+1/2, y+0.4, z+0.1'
   '-x+0.7, -y+0.6, -z+0.1'
   '-x+0.65, -y+0.65, z'
   'x+0.55, y+0.55, -z'
   '-x+3/4, y+1/2, -z+0.05'
   'x+0.45, -y+0.7, z+0.15'
   'x+0.4, -y+3/4, -z+0.15'
   '-x+0.6, y+0.45, z+0.05'
   'z+0.1, x+0.4, y+1/2'
   '-z+0.1, -x+0.6, -y+0.7'
   'z, -x+3/4, -y+3/4'
   '-z, x+0.45, y+0.45'
   '-z+0.05, -x+0.65, y+0.4'
   'z+0.15, x+0.55, -y+0.6'
   '-z+0.15, x+1/2, -y+0.65'
   'z+0.05, -x+0.7, y+0.55'
   'y+1/2, z, x+1/2'
   '-y+0.7, -z, -x+0.7'
   '-y+3/4, z+0.1, -x+0.65'
   'y+0.45, -z+0.1, x+0.55'
   'y+0.4, -z+0.15, -x+3/4'
   '-y+0.6, z+0.05, x+0.45'
   '-y+0.65, -z+0.05, x+0.4'
   'y+0.55, z+0.15, -x+0.6'
   'y+0.45, x+0.45, -z'
   '-y+3/4, -x+3/4, z'
   '-y+0.7, -x+0.6, -z+0.1'
   'y+1/2, x+0.4, z+0.1'
   'y+0.55, -x+0.7, z+0.05'
   '-y+0.65, x+1/2, -z+0.15'
   '-y+0.6, x+0.55, z+0.15'
   'y+0.4, -x+0.65, -z+0.05'
   'x+0.45, z+0.05, -y+0.6'
   '-x+3/4, -z+0.15, y+0.4'
   '-x+0.6, z+0.15, y+0.55'
   'x+0.4, -z+0.05, -y+0.65'
   '-x+0.7, -z, -y+0.7'
   'x+1/2, z, y+1/2'
   'x+0.55, -z+0.1, y+0.45'
   '-x+0.65, z+0.1, -y+3/4'
   'z+0.05, y+0.45, -x+0.6'
   '-z+0.15, -y+3/4, x+0.4'
   'z+0.15, -y+0.7, x+0.45'
   '-z+0.05, y+1/2, -x+3/4'
   '-z, y+0.55, x+0.55'
   'z, -y+0.65, -x+0.65'
   '-z+0.1, -y+0.6, -x+0.7'
   'z+0.1, y+0.4, x+1/2'
   'x+1/2, y+1/2, z'
   '-x+0.7, -y+0.7, -z'
   '-x+0.65, -y+3/4, z+0.1'
   'x+0.55, y+0.45, -z+0.1'
   '-x+3/4, y+0.4, -z+0.15'
   'x+0.45, -y+0.6, z+0.05'
   'x+0.4, -y+0.65, -z+0.05'
   '-x+0.6, y+0.55, z+0.15'
   'z+0.1, x+1/2, y+0.4'
   '-z+0.1, -x+0.7, -y+0.6'
   'z, -x+0.65, -y+0.65'
   '-z, x+0.55, y+0.55'
   '-z+0.05, -x+3/4, y+1/2'
   'z+0.15, x+0.45, -y+0.7'
   '-z+0.15, x+0.4, -y+3/4'
   'z+0.05, -x+0.6, y+0.45'
   'y+1/2, z+0.1, x+0.4'
   '-y+0.7, -z+0.1, -x+0.6'
   '-y+3/4, z, -x+3/4'
   'y+0.45, -z, x+0.45'
   'y+0.4, -z+0.05, -x+0.65'
   '-y+0.6, z+0.15, x+0.55'
   '-y+0.65, -z+0.15, x+1/2'
   'y+0.55, z+0.05, -x+0.7'
   'y+0.45, x+0.55, -z+0.1'
   '-y+3/4, -x+0.65, z+0.1'
   '-y+0.7, -x+0.7, -z'
   'y+1/2, x+1/2, z'
   'y+0.55, -x+0.6, z+0.15'
   '-y+0.65, x+0.4, -z+0.05'
   '-y+0.6, x+0.45, z+0.05'
   'y+0.4, -x+3/4, -z+0.15'
   'x+0.45, z+0.15, -y+0.7'
   '-x+3/4, -z+0.05, y+1/2'
   '-x+0.6, z+0.05, y+0.45'
   'x+0.4, -z+0.15, -y+3/4'
   '-x+0.7, -z+0.1, -y+0.6'
   'x+1/2, z+0.1, y+0.4'
   'x+0.55, -z, y+0.55'
   '-x+0.65, z, -y+0.65'
   'z+0.05, y+0.55, -x+0.7'
   '-z+0.15, -y+0.65, x+1/2'
   'z+0.15, -y+0.6, x+0.55'
   '-z+0.05, y+0.4, -x+0.65'
   '-z, y+0.45, x+0.45'
   'z, -y+3/4, -x+3/4'
   '-z+0.1, -y+0.7, -x+0.6'
   'z+0.1, y+1/2, x+0.4'
   'x+0.4, y+0.4, z+0.2'
   '-x+0.6, -y+0.6, -z+0.8'
   '-x+3/4, -y+0.65, z+0.3'
   'x+0.45, y+0.55, -z+0.9'
   '-x+0.65, y+1/2, -z+0.95'
   'x+0.55, -y+0.7, z+1/4'
   'x+1/2, -y+3/4, -z+0.85'
   '-x+0.7, y+0.45, z+0.35'
   'z+0.2, x+0.4, y+0.4'
   '-z+0.8, -x+0.6, -y+0.6'
   'z+0.3, -x+3/4, -y+0.65'
   '-z+0.9, x+0.45, y+0.55'
   '-z+0.95, -x+0.65, y+1/2'
   'z+1/4, x+0.55, -y+0.7'
   '-z+0.85, x+1/2, -y+3/4'
   'z+0.35, -x+0.7, y+0.45'
   'y+0.4, z+0.2, x+0.4'
   '-y+0.6, -z+0.8, -x+0.6'
   '-y+0.65, z+0.3, -x+3/4'
   'y+0.55, -z+0.9, x+0.45'
   'y+1/2, -z+0.95, -x+0.65'
   '-y+0.7, z+1/4, x+0.55'
   '-y+3/4, -z+0.85, x+1/2'
   'y+0.45, z+0.35, -x+0.7'
   'y+0.55, x+0.45, -z+0.9'
   '-y+0.65, -x+3/4, z+0.3'
   '-y+0.6, -x+0.6, -z+0.8'
   'y+0.4, x+0.4, z+0.2'
   'y+0.45, -x+0.7, z+0.35'
   '-y+3/4, x+1/2, -z+0.85'
   '-y+0.7, x+0.55, z+1/4'
   'y+1/2, -x+0.65, -z+0.95'
   'x+0.55, z+1/4, -y+0.7'
   '-x+0.65, -z+0.95, y+1/2'
   '-x+0.7, z+0.35, y+0.45'
   'x+1/2, -z+0.85, -y+3/4'
   '-x+0.6, -z+0.8, -y+0.6'
   'x+0.4, z+0.2, y+0.4'
   'x+0.45, -z+0.9, y+0.55'
   '-x+3/4, z+0.3, -y+0.65'
   'z+0.35, y+0.45, -x+0.7'
   '-z+0.85, -y+3/4, x+1/2'
   'z+1/4, -y+0.7, x+0.55'
   '-z+0.95, y+1/2, -x+0.65'
   '-z+0.9, y+0.55, x+0.45'
   'z+0.3, -y+0.65, -x+3/4'
   '-z+0.8, -y+0.6, -x+0.6'
   'z+0.2, y+0.4, x+0.4'
   'x+0.4, y+1/2, z+0.3'
   '-x+0.6, -y+0.7, -z+0.9'
   '-x+3/4, -y+3/4, z+0.2'
   'x+0.45, y+0.45, -z+0.8'
   '-x+0.65, y+0.4, -z+0.85'
   'x+0.55, -y+0.6, z+0.35'
   'x+1/2, -y+0.65, -z+0.95'
   '-x+0.7, y+0.55, z+1/4'
   'z+0.2, x+1/2, y+1/2'
   '-z+0.8, -x+0.7, -y+0.7'
   'z+0.3, -x+0.65, -y+3/4'
   '-z+0.9, x+0.55, y+0.45'
   '-z+0.95, -x+3/4, y+0.4'
   'z+1/4, x+0.45, -y+0.6'
   '-z+0.85, x+0.4, -y+0.65'
   'z+0.35, -x+0.6, y+0.55'
   'y+0.4, z+0.3, x+1/2'
   '-y+0.6, -z+0.9, -x+0.7'
   '-y+0.65, z+0.2, -x+0.65'
   'y+0.55, -z+0.8, x+0.55'
   'y+1/2, -z+0.85, -x+3/4'
   '-y+0.7, z+0.35, x+0.45'
   '-y+3/4, -z+0.95, x+0.4'
   'y+0.45, z+1/4, -x+0.6'
   'y+0.55, x+0.55, -z+0.8'
   '-y+0.65, -x+0.65, z+0.2'
   '-y+0.6, -x+0.7, -z+0.9'
   'y+0.4, x+1/2, z+0.3'
   'y+0.45, -x+0.6, z+1/4'
   '-y+3/4, x+0.4, -z+0.95'
   '-y+0.7, x+0.45, z+0.35'
   'y+1/2, -x+3/4, -z+0.85'
   'x+0.55, z+0.35, -y+0.6'
   '-x+0.65, -z+0.85, y+0.4'
   '-x+0.7, z+1/4, y+0.55'
   'x+1/2, -z+0.95, -y+0.65'
   '-x+0.6, -z+0.9, -y+0.7'
   'x+0.4, z+0.3, y+1/2'
   'x+0.45, -z+0.8, y+0.45'
   '-x+3/4, z+0.2, -y+3/4'
   'z+0.35, y+0.55, -x+0.6'
   '-z+0.85, -y+0.65, x+0.4'
   'z+1/4, -y+0.6, x+0.45'
   '-z+0.95, y+0.4, -x+3/4'
   '-z+0.9, y+0.45, x+0.55'
   'z+0.3, -y+3/4, -x+0.65'
   '-z+0.8, -y+0.7, -x+0.7'
   'z+0.2, y+1/2, x+1/2'
   'x+1/2, y+0.4, z+0.3'
   '-x+0.7, -y+0.6, -z+0.9'
   '-x+0.65, -y+0.65, z+0.2'
   'x+0.55, y+0.55, -z+0.8'
   '-x+3/4, y+1/2, -z+0.85'
   'x+0.45, -y+0.7, z+0.35'
   'x+0.4, -y+3/4, -z+0.95'
   '-x+0.6, y+0.45, z+1/4'
   'z+0.3, x+0.4, y+1/2'
   '-z+0.9, -x+0.6, -y+0.7'
   'z+0.2, -x+3/4, -y+3/4'
   '-z+0.8, x+0.45, y+0.45'
   '-z+0.85, -x+0.65, y+0.4'
   'z+0.35, x+0.55, -y+0.6'
   '-z+0.95, x+1/2, -y+0.65'
   'z+1/4, -x+0.7, y+0.55'
   'y+1/2, z+0.2, x+1/2'
   '-y+0.7, -z+0.8, -x+0.7'
   '-y+3/4, z+0.3, -x+0.65'
   'y+0.45, -z+0.9, x+0.55'
   'y+0.4, -z+0.95, -x+3/4'
   '-y+0.6, z+1/4, x+0.45'
   '-y+0.65, -z+0.85, x+0.4'
   'y+0.55, z+0.35, -x+0.6'
   'y+0.45, x+0.45, -z+0.8'
   '-y+3/4, -x+3/4, z+0.2'
   '-y+0.7, -x+0.6, -z+0.9'
   'y+1/2, x+0.4, z+0.3'
   'y+0.55, -x+0.7, z+1/4'
   '-y+0.65, x+1/2, -z+0.95'
   '-y+0.6, x+0.55, z+0.35'
   'y+0.4, -x+0.65, -z+0.85'
   'x+0.45, z+1/4, -y+0.6'
   '-x+3/4, -z+0.95, y+0.4'
   '-x+0.6, z+0.35, y+0.55'
   'x+0.4, -z+0.85, -y+0.65'
   '-x+0.7, -z+0.8, -y+0.7'
   'x+1/2, z+0.2, y+1/2'
   'x+0.55, -z+0.9, y+0.45'
   '-x+0.65, z+0.3, -y+3/4'
   'z+1/4, y+0.45, -x+0.6'
   '-z+0.95, -y+3/4, x+0.4'
   'z+0.35, -y+0.7, x+0.45'
   '-z+0.85, y+1/2, -x+3/4'
   '-z+0.8, y+0.55, x+0.55'
   'z+0.2, -y+0.65, -x+0.65'
   '-z+0.9, -y+0.6, -x+0.7'
   'z+0.3, y+0.4, x+1/2'
   'x+1/2, y+1/2, z+0.2'
   '-x+0.7, -y+0.7, -z+0.8'
   '-x+0.65, -y+3/4, z+0.3'
   'x+0.55, y+0.45, -z+0.9'
   '-x+3/4, y+0.4, -z+0.95'
   'x+0.45, -y+0.6, z+1/4'
   'x+0.4, -y+0.65, -z+0.85'
   '-x+0.6, y+0.55, z+0.35'
   'z+0.3, x+1/2, y+0.4'
   '-z+0.9, -x+0.7, -y+0.6'
   'z+0.2, -x+0.65, -y+0.65'
   '-z+0.8, x+0.55, y+0.55'
   '-z+0.85, -x+3/4, y+1/2'
   'z+0.35, x+0.45, -y+0.7'
   '-z+0.95, x+0.4, -y+3/4'
   'z+1/4, -x+0.6, y+0.45'
   'y+1/2, z+0.3, x+0.4'
   '-y+0.7, -z+0.9, -x+0.6'
   '-y+3/4, z+0.2, -x+3/4'
   'y+0.45, -z+0.8, x+0.45'
   'y+0.4, -z+0.85, -x+0.65'
   '-y+0.6, z+0.35, x+0.55'
   '-y+0.65, -z+0.95, x+1/2'
   'y+0.55, z+1/4, -x+0.7'
   'y+0.45, x+0.55, -z+0.9'
   '-y+3/4, -x+0.65, z+0.3'
   '-y+0.7, -x+0.7, -z+0.8'
   'y+1/2, x+1/2, z+0.2'
   'y+0.55, -x+0.6, z+0.35'
   '-y+0.65, x+0.4, -z+0.85'
   '-y+0.6, x+0.45, z+1/4'
   'y+0.4, -x+3/4, -z+0.95'
   'x+0.45, z+0.35, -y+0.7'
   '-x+3/4, -z+0.85, y+1/2'
   '-x+0.6, z+1/4, y+0.45'
   'x+0.4, -z+0.95, -y+3/4'
   '-x+0.7, -z+0.9, -y+0.6'
   'x+1/2, z+0.3, y+0.4'
   'x+0.55, -z+0.8, y+0.55'
   '-x+0.65, z+0.2, -y+0.65'
   'z+1/4, y+0.55, -x+0.7'
   '-z+0.95, -y+0.65, x+1/2'
   'z+0.35, -y+0.6, x+0.55'
   '-z+0.85, y+0.4, -x+0.65'
   '-z+0.8, y+0.45, x+0.45'
   'z+0.2, -y+3/4, -x+3/4'
   '-z+0.9, -y+0.7, -x+0.6'
   'z+0.3, y+1/2, x+0.4'
   'x+0.4, y+0.4, z+0.4'
   '-x+0.6, -y+0.6, -z+0.6'
   '-x+3/4, -y+0.65, z+1/2'
   'x+0.45, y+0.55, -z+0.7'
   '-x+0.65, y+1/2, -z+3/4'
   'x+0.55, -y+0.7, z+0.45'
   'x+1/2, -y+3/4, -z+0.65'
   '-x+0.7, y+0.45, z+0.55'
   'z+0.4, x+0.4, y+0.4'
   '-z+0.6, -x+0.6, -y+0.6'
   'z+1/2, -x+3/4, -y+0.65'
   '-z+0.7, x+0.45, y+0.55'
   '-z+3/4, -x+0.65, y+1/2'
   'z+0.45, x+0.55, -y+0.7'
   '-z+0.65, x+1/2, -y+3/4'
   'z+0.55, -x+0.7, y+0.45'
   'y+0.4, z+0.4, x+0.4'
   '-y+0.6, -z+0.6, -x+0.6'
   '-y+0.65, z+1/2, -x+3/4'
   'y+0.55, -z+0.7, x+0.45'
   'y+1/2, -z+3/4, -x+0.65'
   '-y+0.7, z+0.45, x+0.55'
   '-y+3/4, -z+0.65, x+1/2'
   'y+0.45, z+0.55, -x+0.7'
   'y+0.55, x+0.45, -z+0.7'
   '-y+0.65, -x+3/4, z+1/2'
   '-y+0.6, -x+0.6, -z+0.6'
   'y+0.4, x+0.4, z+0.4'
   'y+0.45, -x+0.7, z+0.55'
   '-y+3/4, x+1/2, -z+0.65'
   '-y+0.7, x+0.55, z+0.45'
   'y+1/2, -x+0.65, -z+3/4'
   'x+0.55, z+0.45, -y+0.7'
   '-x+0.65, -z+3/4, y+1/2'
   '-x+0.7, z+0.55, y+0.45'
   'x+1/2, -z+0.65, -y+3/4'
   '-x+0.6, -z+0.6, -y+0.6'
   'x+0.4, z+0.4, y+0.4'
   'x+0.45, -z+0.7, y+0.55'
   '-x+3/4, z+1/2, -y+0.65'
   'z+0.55, y+0.45, -x+0.7'
   '-z+0.65, -y+3/4, x+1/2'
   'z+0.45, -y+0.7, x+0.55'
   '-z+3/4, y+1/2, -x+0.65'
   '-z+0.7, y+0.55, x+0.45'
   'z+1/2, -y+0.65, -x+3/4'
   '-z+0.6, -y+0.6, -x+0.6'
   'z+0.4, y+0.4, x+0.4'
   'x+0.4, y+1/2, z+1/2'
   '-x+0.6, -y+0.7, -z+0.7'
   '-x+3/4, -y+3/4, z+0.4'
   'x+0.45, y+0.45, -z+0.6'
   '-x+0.65, y+0.4, -z+0.65'
   'x+0.55, -y+0.6, z+0.55'
   'x+1/2, -y+0.65, -z+3/4'
   '-x+0.7, y+0.55, z+0.45'
   'z+0.4, x+1/2, y+1/2'
   '-z+0.6, -x+0.7, -y+0.7'
   'z+1/2, -x+0.65, -y+3/4'
   '-z+0.7, x+0.55, y+0.45'
   '-z+3/4, -x+3/4, y+0.4'
   'z+0.45, x+0.45, -y+0.6'
   '-z+0.65, x+0.4, -y+0.65'
   'z+0.55, -x+0.6, y+0.55'
   'y+0.4, z+1/2, x+1/2'
   '-y+0.6, -z+0.7, -x+0.7'
   '-y+0.65, z+0.4, -x+0.65'
   'y+0.55, -z+0.6, x+0.55'
   'y+1/2, -z+0.65, -x+3/4'
   '-y+0.7, z+0.55, x+0.45'
   '-y+3/4, -z+3/4, x+0.4'
   'y+0.45, z+0.45, -x+0.6'
   'y+0.55, x+0.55, -z+0.6'
   '-y+0.65, -x+0.65, z+0.4'
   '-y+0.6, -x+0.7, -z+0.7'
   'y+0.4, x+1/2, z+1/2'
   'y+0.45, -x+0.6, z+0.45'
   '-y+3/4, x+0.4, -z+3/4'
   '-y+0.7, x+0.45, z+0.55'
   'y+1/2, -x+3/4, -z+0.65'
   'x+0.55, z+0.55, -y+0.6'
   '-x+0.65, -z+0.65, y+0.4'
   '-x+0.7, z+0.45, y+0.55'
   'x+1/2, -z+3/4, -y+0.65'
   '-x+0.6, -z+0.7, -y+0.7'
   'x+0.4, z+1/2, y+1/2'
   'x+0.45, -z+0.6, y+0.45'
   '-x+3/4, z+0.4, -y+3/4'
   'z+0.55, y+0.55, -x+0.6'
   '-z+0.65, -y+0.65, x+0.4'
   'z+0.45, -y+0.6, x+0.45'
   '-z+3/4, y+0.4, -x+3/4'
   '-z+0.7, y+0.45, x+0.55'
   'z+1/2, -y+3/4, -x+0.65'
   '-z+0.6, -y+0.7, -x+0.7'
   'z+0.4, y+1/2, x+1/2'
   'x+1/2, y+0.4, z+1/2'
   '-x+0.7, -y+0.6, -z+0.7'
   '-x+0.65, -y+0.65, z+0.4'
   'x+0.55, y+0.55, -z+0.6'
   '-x+3/4, y+1/2, -z+0.65'
   'x+0.45, -y+0.7, z+0.55'
   'x+0.4, -y+3/4, -z+3/4'
   '-x+0.6, y+0.45, z+0.45'
   'z+1/2, x+0.4, y+1/2'
   '-z+0.7, -x+0.6, -y+0.7'
   'z+0.4, -x+3/4, -y+3/4'
   '-z+0.6, x+0.45, y+0.45'
   '-z+0.65, -x+0.65, y+0.4'
   'z+0.55, x+0.55, -y+0.6'
   '-z+3/4, x+1/2, -y+0.65'
   'z+0.45, -x+0.7, y+0.55'
   'y+1/2, z+0.4, x+1/2'
   '-y+0.7, -z+0.6, -x+0.7'
   '-y+3/4, z+1/2, -x+0.65'
   'y+0.45, -z+0.7, x+0.55'
   'y+0.4, -z+3/4, -x+3/4'
   '-y+0.6, z+0.45, x+0.45'
   '-y+0.65, -z+0.65, x+0.4'
   'y+0.55, z+0.55, -x+0.6'
   'y+0.45, x+0.45, -z+0.6'
   '-y+3/4, -x+3/4, z+0.4'
   '-y+0.7, -x+0.6, -z+0.7'
   'y+1/2, x+0.4, z+1/2'
   'y+0.55, -x+0.7, z+0.45'
   '-y+0.65, x+1/2, -z+3/4'
   '-y+0.6, x+0.55, z+0.55'
   'y+0.4, -x+0.65, -z+0.65'
   'x+0.45, z+0.45, -y+0.6'
   '-x+3/4, -z+3/4, y+0.4'
   '-x+0.6, z+0.55, y+0.55'
   'x+0.4, -z+0.65, -y+0.65'
   '-x+0.7, -z+0.6, -y+0.7'
   'x+1/2, z+0.4, y+1/2'
   'x+0.55, -z+0.7, y+0.45'
   '-x+0.65, z+1/2, -y+3/4'
   'z+0.45, y+0.45, -x+0.6'
   '-z+3/4, -y+3/4, x+0.4'
   'z+0.55, -y+0.7, x+0.45'
   '-z+0.65, y+1/2, -x+3/4'
   '-z+0.6, y+0.55, x+0.55'
   'z+0.4, -y+0.65, -x+0.65'
   '-z+0.7, -y+0.6, -x+0.7'
   'z+1/2, y+0.4, x+1/2'
   'x+1/2, y+1/2, z+0.4'
   '-x+0.7, -y+0.7, -z+0.6'
   '-x+0.65, -y+3/4, z+1/2'
   'x+0.55, y+0.45, -z+0.7'
   '-x+3/4, y+0.4, -z+3/4'
   'x+0.45, -y+0.6, z+0.45'
   'x+0.4, -y+0.65, -z+0.65'
   '-x+0.6, y+0.55, z+0.55'
   'z+1/2, x+1/2, y+0.4'
   '-z+0.7, -x+0.7, -y+0.6'
   'z+0.4, -x+0.65, -y+0.65'
   '-z+0.6, x+0.55, y+0.55'
   '-z+0.65, -x+3/4, y+1/2'
   'z+0.55, x+0.45, -y+0.7'
   '-z+3/4, x+0.4, -y+3/4'
   'z+0.45, -x+0.6, y+0.45'
   'y+1/2, z+1/2, x+0.4'
   '-y+0.7, -z+0.7, -x+0.6'
   '-y+3/4, z+0.4, -x+3/4'
   'y+0.45, -z+0.6, x+0.45'
   'y+0.4, -z+0.65, -x+0.65'
   '-y+0.6, z+0.55, x+0.55'
   '-y+0.65, -z+3/4, x+1/2'
   'y+0.55, z+0.45, -x+0.7'
   'y+0.45, x+0.55, -z+0.7'
   '-y+3/4, -x+0.65, z+1/2'
   '-y+0.7, -x+0.7, -z+0.6'
   'y+1/2, x+1/2, z+0.4'
   'y+0.55, -x+0.6, z+0.55'
   '-y+0.65, x+0.4, -z+0.65'
   '-y+0.6, x+0.45, z+0.45'
   'y+0.4, -x+3/4, -z+3/4'
   'x+0.45, z+0.55, -y+0.7'
   '-x+3/4, -z+0.65, y+1/2'
   '-x+0.6, z+0.45, y+0.45'
   'x+0.4, -z+3/4, -y+3/4'
   '-x+0.7, -z+0.7, -y+0.6'
   'x+1/2, z+1/2, y+0.4'
   'x+0.55, -z+0.6, y+0.55'
   '-x+0.65, z+0.4, -y+0.65'
   'z+0.45, y+0.55, -x+0.7'
   '-z+3/4, -y+0.65, x+1/2'
   'z+0.55, -y+0.6, x+0.55'
   '-z+0.65, y+0.4, -x+0.65'
   '-z+0.6, y+0.45, x+0.45'
   'z+0.4, -y+3/4, -x+3/4'
   '-z+0.7, -y+0.7, -x+0.6'
   'z+1/2, y+1/2, x+0.4'
   'x+0.4, y+0.4, z+0.6'
   '-x+0.6, -y+0.6, -z+0.4'
   '-x+3/4, -y+0.65, z+0.7'
   'x+0.45, y+0.55, -z+1/2'
   '-x+0.65, y+1/2, -z+0.55'
   'x+0.55, -y+0.7, z+0.65'
   'x+1/2, -y+3/4, -z+0.45'
   '-x+0.7, y+0.45, z+3/4'
   'z+0.6, x+0.4, y+0.4'
   '-z+0.4, -x+0.6, -y+0.6'
   'z+0.7, -x+3/4, -y+0.65'
   '-z+1/2, x+0.45, y+0.55'
   '-z+0.55, -x+0.65, y+1/2'
   'z+0.65, x+0.55, -y+0.7'
   '-z+0.45, x+1/2, -y+3/4'
   'z+3/4, -x+0.7, y+0.45'
   'y+0.4, z+0.6, x+0.4'
   '-y+0.6, -z+0.4, -x+0.6'
   '-y+0.65, z+0.7, -x+3/4'
   'y+0.55, -z+1/2, x+0.45'
   'y+1/2, -z+0.55, -x+0.65'
   '-y+0.7, z+0.65, x+0.55'
   '-y+3/4, -z+0.45, x+1/2'
   'y+0.45, z+3/4, -x+0.7'
   'y+0.55, x+0.45, -z+1/2'
   '-y+0.65, -x+3/4, z+0.7'
   '-y+0.6, -x+0.6, -z+0.4'
   'y+0.4, x+0.4, z+0.6'
   'y+0.45, -x+0.7, z+3/4'
   '-y+3/4, x+1/2, -z+0.45'
   '-y+0.7, x+0.55, z+0.65'
   'y+1/2, -x+0.65, -z+0.55'
   'x+0.55, z+0.65, -y+0.7'
   '-x+0.65, -z+0.55, y+1/2'
   '-x+0.7, z+3/4, y+0.45'
   'x+1/2, -z+0.45, -y+3/4'
   '-x+0.6, -z+0.4, -y+0.6'
   'x+0.4, z+0.6, y+0.4'
   'x+0.45, -z+1/2, y+0.55'
   '-x+3/4, z+0.7, -y+0.65'
   'z+3/4, y+0.45, -x+0.7'
   '-z+0.45, -y+3/4, x+1/2'
   'z+0.65, -y+0.7, x+0.55'
   '-z+0.55, y+1/2, -x+0.65'
   '-z+1/2, y+0.55, x+0.45'
   'z+0.7, -y+0.65, -x+3/4'
   '-z+0.4, -y+0.6, -x+0.6'
   'z+0.6, y+0.4, x+0.4'
   'x+0.4, y+1/2, z+0.7'
   '-x+0.6, -y+0.7, -z+1/2'
   '-x+3/4, -y+3/4, z+0.6'
   'x+0.45, y+0.45, -z+0.4'
   '-x+0.65, y+0.4, -z+0.45'
   'x+0.55, -y+0.6, z+3/4'
   'x+1/2, -y+0.65, -z+0.55'
   '-x+0.7, y+0.55, z+0.65'
   'z+0.6, x+1/2, y+1/2'
   '-z+0.4, -x+0.7, -y+0.7'
   'z+0.7, -x+0.65, -y+3/4'
   '-z+1/2, x+0.55, y+0.45'
   '-z+0.55, -x+3/4, y+0.4'
   'z+0.65, x+0.45, -y+0.6'
   '-z+0.45, x+0.4, -y+0.65'
   'z+3/4, -x+0.6, y+0.55'
   'y+0.4, z+0.7, x+1/2'
   '-y+0.6, -z+1/2, -x+0.7'
   '-y+0.65, z+0.6, -x+0.65'
   'y+0.55, -z+0.4, x+0.55'
   'y+1/2, -z+0.45, -x+3/4'
   '-y+0.7, z+3/4, x+0.45'
   '-y+3/4, -z+0.55, x+0.4'
   'y+0.45, z+0.65, -x+0.6'
   'y+0.55, x+0.55, -z+0.4'
   '-y+0.65, -x+0.65, z+0.6'
   '-y+0.6, -x+0.7, -z+1/2'
   'y+0.4, x+1/2, z+0.7'
   'y+0.45, -x+0.6, z+0.65'
   '-y+3/4, x+0.4, -z+0.55'
   '-y+0.7, x+0.45, z+3/4'
   'y+1/2, -x+3/4, -z+0.45'
   'x+0.55, z+3/4, -y+0.6'
   '-x+0.65, -z+0.45, y+0.4'
   '-x+0.7, z+0.65, y+0.55'
   'x+1/2, -z+0.55, -y+0.65'
   '-x+0.6, -z+1/2, -y+0.7'
   'x+0.4, z+0.7, y+1/2'
   'x+0.45, -z+0.4, y+0.45'
   '-x+3/4, z+0.6, -y+3/4'
   'z+3/4, y+0.55, -x+0.6'
   '-z+0.45, -y+0.65, x+0.4'
   'z+0.65, -y+0.6, x+0.45'
   '-z+0.55, y+0.4, -x+3/4'
   '-z+1/2, y+0.45, x+0.55'
   'z+0.7, -y+3/4, -x+0.65'
   '-z+0.4, -y+0.7, -x+0.7'
   'z+0.6, y+1/2, x+1/2'
   'x+1/2, y+0.4, z+0.7'
   '-x+0.7, -y+0.6, -z+1/2'
   '-x+0.65, -y+0.65, z+0.6'
   'x+0.55, y+0.55, -z+0.4'
   '-x+3/4, y+1/2, -z+0.45'
   'x+0.45, -y+0.7, z+3/4'
   'x+0.4, -y+3/4, -z+0.55'
   '-x+0.6, y+0.45, z+0.65'
   'z+0.7, x+0.4, y+1/2'
   '-z+1/2, -x+0.6, -y+0.7'
   'z+0.6, -x+3/4, -y+3/4'
   '-z+0.4, x+0.45, y+0.45'
   '-z+0.45, -x+0.65, y+0.4'
   'z+3/4, x+0.55, -y+0.6'
   '-z+0.55, x+1/2, -y+0.65'
   'z+0.65, -x+0.7, y+0.55'
   'y+1/2, z+0.6, x+1/2'
   '-y+0.7, -z+0.4, -x+0.7'
   '-y+3/4, z+0.7, -x+0.65'
   'y+0.45, -z+1/2, x+0.55'
   'y+0.4, -z+0.55, -x+3/4'
   '-y+0.6, z+0.65, x+0.45'
   '-y+0.65, -z+0.45, x+0.4'
   'y+0.55, z+3/4, -x+0.6'
   'y+0.45, x+0.45, -z+0.4'
   '-y+3/4, -x+3/4, z+0.6'
   '-y+0.7, -x+0.6, -z+1/2'
   'y+1/2, x+0.4, z+0.7'
   'y+0.55, -x+0.7, z+0.65'
   '-y+0.65, x+1/2, -z+0.55'
   '-y+0.6, x+0.55, z+3/4'
   'y+0.4, -x+0.65, -z+0.45'
   'x+0.45, z+0.65, -y+0.6'
   '-x+3/4, -z+0.55, y+0.4'
   '-x+0.6, z+3/4, y+0.55'
   'x+0.4, -z+0.45, -y+0.65'
   '-x+0.7, -z+0.4, -y+0.7'
   'x+1/2, z+0.6, y+1/2'
   'x+0.55, -z+1/2, y+0.45'
   '-x+0.65, z+0.7, -y+3/4'
   'z+0.65, y+0.45, -x+0.6'
   '-z+0.55, -y+3/4, x+0.4'
   'z+3/4, -y+0.7, x+0.45'
   '-z+0.45, y+1/2, -x+3/4'
   '-z+0.4, y+0.55, x+0.55'
   'z+0.6, -y+0.65, -x+0.65'
   '-z+1/2, -y+0.6, -x+0.7'
   'z+0.7, y+0.4, x+1/2'
   'x+1/2, y+1/2, z+0.6'
   '-x+0.7, -y+0.7, -z+0.4'
   '-x+0.65, -y+3/4, z+0.7'
   'x+0.55, y+0.45, -z+1/2'
   '-x+3/4, y+0.4, -z+0.55'
   'x+0.45, -y+0.6, z+0.65'
   'x+0.4, -y+0.65, -z+0.45'
   '-x+0.6, y+0.55, z+3/4'
   'z+0.7, x+1/2, y+0.4'
   '-z+1/2, -x+0.7, -y+0.6'
   'z+0.6, -x+0.65, -y+0.65'
   '-z+0.4, x+0.55, y+0.55'
   '-z+0.45, -x+3/4, y+1/2'
   'z+3/4, x+0.45, -y+0.7'
   '-z+0.55, x+0.4, -y+3/4'
   'z+0.65, -x+0.6, y+0.45'
   'y+1/2, z+0.7, x+0.4'
   '-y+0.7, -z+1/2, -x+0.6'
   '-y+3/4, z+0.6, -x+3/4'
   'y+0.45, -z+0.4, x+0.45'
   'y+0.4, -z+0.45, -x+0.65'
   '-y+0.6, z+3/4, x+0.55'
   '-y+0.65, -z+0.55, x+1/2'
   'y+0.55, z+0.65, -x+0.7'
   'y+0.45, x+0.55, -z+1/2'
   '-y+3/4, -x+0.65, z+0.7'
   '-y+0.7, -x+0.7, -z+0.4'
   'y+1/2, x+1/2, z+0.6'
   'y+0.55, -x+0.6, z+3/4'
   '-y+0.65, x+0.4, -z+0.45'
   '-y+0.6, x+0.45, z+0.65'
   'y+0.4, -x+3/4, -z+0.55'
   'x+0.45, z+3/4, -y+0.7'
   '-x+3/4, -z+0.45, y+1/2'
   '-x+0.6, z+0.65, y+0.45'
   'x+0.4, -z+0.55, -y+3/4'
   '-x+0.7, -z+1/2, -y+0.6'
   'x+1/2, z+0.7, y+0.4'
   'x+0.55, -z+0.4, y+0.55'
   '-x+0.65, z+0.6, -y+0.65'
   'z+0.65, y+0.55, -x+0.7'
   '-z+0.55, -y+0.65, x+1/2'
   'z+3/4, -y+0.6, x+0.55'
   '-z+0.45, y+0.4, -x+0.65'
   '-z+0.4, y+0.45, x+0.45'
   'z+0.6, -y+3/4, -x+3/4'
   '-z+1/2, -y+0.7, -x+0.6'
   'z+0.7, y+1/2, x+0.4'
   'x+0.4, y+0.4, z+0.8'
   '-x+0.6, -y+0.6, -z+0.2'
   '-x+3/4, -y+0.65, z+0.9'
   'x+0.45, y+0.55, -z+0.3'
   '-x+0.65, y+1/2, -z+0.35'
   'x+0.55, -y+0.7, z+0.85'
   'x+1/2, -y+3/4, -z+1/4'
   '-x+0.7, y+0.45, z+0.95'
   'z+0.8, x+0.4, y+0.4'
   '-z+0.2, -x+0.6, -y+0.6'
   'z+0.9, -x+3/4, -y+0.65'
   '-z+0.3, x+0.45, y+0.55'
   '-z+0.35, -x+0.65, y+1/2'
   'z+0.85, x+0.55, -y+0.7'
   '-z+1/4, x+1/2, -y+3/4'
   'z+0.95, -x+0.7, y+0.45'
   'y+0.4, z+0.8, x+0.4'
   '-y+0.6, -z+0.2, -x+0.6'
   '-y+0.65, z+0.9, -x+3/4'
   'y+0.55, -z+0.3, x+0.45'
   'y+1/2, -z+0.35, -x+0.65'
   '-y+0.7, z+0.85, x+0.55'
   '-y+3/4, -z+1/4, x+1/2'
   'y+0.45, z+0.95, -x+0.7'
   'y+0.55, x+0.45, -z+0.3'
   '-y+0.65, -x+3/4, z+0.9'
   '-y+0.6, -x+0.6, -z+0.2'
   'y+0.4, x+0.4, z+0.8'
   'y+0.45, -x+0.7, z+0.95'
   '-y+3/4, x+1/2, -z+1/4'
   '-y+0.7, x+0.55, z+0.85'
   'y+1/2, -x+0.65, -z+0.35'
   'x+0.55, z+0.85, -y+0.7'
   '-x+0.65, -z+0.35, y+1/2'
   '-x+0.7, z+0.95, y+0.45'
   'x+1/2, -z+1/4, -y+3/4'
   '-x+0.6, -z+0.2, -y+0.6'
   'x+0.4, z+0.8, y+0.4'
   'x+0.45, -z+0.3, y+0.55'
   '-x+3/4, z+0.9, -y+0.65'
   'z+0.95, y+0.45, -x+0.7'
   '-z+1/4, -y+3/4, x+1/2'
   'z+0.85, -y+0.7, x+0.55'
   '-z+0.35, y+1/2, -x+0.65'
   '-z+0.3, y+0.55, x+0.45'
   'z+0.9, -y+0.65, -x+3/4'
   '-z+0.2, -y+0.6, -x+0.6'
   'z+0.8, y+0.4, x+0.4'
   'x+0.4, y+1/2, z+0.9'
   '-x+0.6, -y+0.7, -z+0.3'
   '-x+3/4, -y+3/4, z+0.8'
   'x+0.45, y+0.45, -z+0.2'
   '-x+0.65, y+0.4, -z+1/4'
   'x+0.55, -y+0.6, z+0.95'
   'x+1/2, -y+0.65, -z+0.35'
   '-x+0.7, y+0.55, z+0.85'
   'z+0.8, x+1/2, y+1/2'
   '-z+0.2, -x+0.7, -y+0.7'
   'z+0.9, -x+0.65, -y+3/4'
   '-z+0.3, x+0.55, y+0.45'
   '-z+0.35, -x+3/4, y+0.4'
   'z+0.85, x+0.45, -y+0.6'
   '-z+1/4, x+0.4, -y+0.65'
   'z+0.95, -x+0.6, y+0.55'
   'y+0.4, z+0.9, x+1/2'
   '-y+0.6, -z+0.3, -x+0.7'
   '-y+0.65, z+0.8, -x+0.65'
   'y+0.55, -z+0.2, x+0.55'
   'y+1/2, -z+1/4, -x+3/4'
   '-y+0.7, z+0.95, x+0.45'
   '-y+3/4, -z+0.35, x+0.4'
   'y+0.45, z+0.85, -x+0.6'
   'y+0.55, x+0.55, -z+0.2'
   '-y+0.65, -x+0.65, z+0.8'
   '-y+0.6, -x+0.7, -z+0.3'
   'y+0.4, x+1/2, z+0.9'
   'y+0.45, -x+0.6, z+0.85'
   '-y+3/4, x+0.4, -z+0.35'
   '-y+0.7, x+0.45, z+0.95'
   'y+1/2, -x+3/4, -z+1/4'
   'x+0.55, z+0.95, -y+0.6'
   '-x+0.65, -z+1/4, y+0.4'
   '-x+0.7, z+0.85, y+0.55'
   'x+1/2, -z+0.35, -y+0.65'
   '-x+0.6, -z+0.3, -y+0.7'
   'x+0.4, z+0.9, y+1/2'
   'x+0.45, -z+0.2, y+0.45'
   '-x+3/4, z+0.8, -y+3/4'
   'z+0.95, y+0.55, -x+0.6'
   '-z+1/4, -y+0.65, x+0.4'
   'z+0.85, -y+0.6, x+0.45'
   '-z+0.35, y+0.4, -x+3/4'
   '-z+0.3, y+0.45, x+0.55'
   'z+0.9, -y+3/4, -x+0.65'
   '-z+0.2, -y+0.7, -x+0.7'
   'z+0.8, y+1/2, x+1/2'
   'x+1/2, y+0.4, z+0.9'
   '-x+0.7, -y+0.6, -z+0.3'
   '-x+0.65, -y+0.65, z+0.8'
   'x+0.55, y+0.55, -z+0.2'
   '-x+3/4, y+1/2, -z+1/4'
   'x+0.45, -y+0.7, z+0.95'
   'x+0.4, -y+3/4, -z+0.35'
   '-x+0.6, y+0.45, z+0.85'
   'z+0.9, x+0.4, y+1/2'
   '-z+0.3, -x+0.6, -y+0.7'
   'z+0.8, -x+3/4, -y+3/4'
   '-z+0.2, x+0.45, y+0.45'
   '-z+1/4, -x+0.65, y+0.4'
   'z+0.95, x+0.55, -y+0.6'
   '-z+0.35, x+1/2, -y+0.65'
   'z+0.85, -x+0.7, y+0.55'
   'y+1/2, z+0.8, x+1/2'
   '-y+0.7, -z+0.2, -x+0.7'
   '-y+3/4, z+0.9, -x+0.65'
   'y+0.45, -z+0.3, x+0.55'
   'y+0.4, -z+0.35, -x+3/4'
   '-y+0.6, z+0.85, x+0.45'
   '-y+0.65, -z+1/4, x+0.4'
   'y+0.55, z+0.95, -x+0.6'
   'y+0.45, x+0.45, -z+0.2'
   '-y+3/4, -x+3/4, z+0.8'
   '-y+0.7, -x+0.6, -z+0.3'
   'y+1/2, x+0.4, z+0.9'
   'y+0.55, -x+0.7, z+0.85'
   '-y+0.65, x+1/2, -z+0.35'
   '-y+0.6, x+0.55, z+0.95'
   'y+0.4, -x+0.65, -z+1/4'
   'x+0.45, z+0.85, -y+0.6'
   '-x+3/4, -z+0.35, y+0.4'
   '-x+0.6, z+0.95, y+0.55'
   'x+0.4, -z+1/4, -y+0.65'
   '-x+0.7, -z+0.2, -y+0.7'
   'x+1/2, z+0.8, y+1/2'
   'x+0.55, -z+0.3, y+0.45'
   '-x+0.65, z+0.9, -y+3/4'
   'z+0.85, y+0.45, -x+0.6'
   '-z+0.35, -y+3/4, x+0.4'
   'z+0.95, -y+0.7, x+0.45'
   '-z+1/4, y+1/2, -x+3/4'
   '-z+0.2, y+0.55, x+0.55'
   'z+0.8, -y+0.65, -x+0.65'
   '-z+0.3, -y+0.6, -x+0.7'
   'z+0.9, y+0.4, x+1/2'
   'x+1/2, y+1/2, z+0.8'
   '-x+0.7, -y+0.7, -z+0.2'
   '-x+0.65, -y+3/4, z+0.9'
   'x+0.55, y+0.45, -z+0.3'
   '-x+3/4, y+0.4, -z+0.35'
   'x+0.45, -y+0.6, z+0.85'
   'x+0.4, -y+0.65, -z+1/4'
   '-x+0.6, y+0.55, z+0.95'
   'z+0.9, x+1/2, y+0.4'
   '-z+0.3, -x+0.7, -y+0.6'
   'z+0.8, -x+0.65, -y+0.65'
   '-z+0.2, x+0.55, y+0.55'
   '-z+1/4, -x+3/4, y+1/2'
   'z+0.95, x+0.45, -y+0.7'
   '-z+0.35, x+0.4, -y+3/4'
   'z+0.85, -x+0.6, y+0.45'
   'y+1/2, z+0.9, x+0.4'
   '-y+0.7, -z+0.3, -x+0.6'
   '-y+3/4, z+0.8, -x+3/4'
   'y+0.45, -z+0.2, x+0.45'
   'y+0.4, -z+1/4, -x+0.65'
   '-y+0.6, z+0.95, x+0.55'
   '-y+0.65, -z+0.35, x+1/2'
   'y+0.55, z+0.85, -x+0.7'
   'y+0.45, x+0.55, -z+0.3'
   '-y+3/4, -x+0.65, z+0.9'
   '-y+0.7, -x+0.7, -z+0.2'
   'y+1/2, x+1/2, z+0.8'
   'y+0.55, -x+0.6, z+0.95'
   '-y+0.65, x+0.4, -z+1/4'
   '-y+0.6, x+0.45, z+0.85'
   'y+0.4, -x+3/4, -z+0.35'
   'x+0.45, z+0.95, -y+0.7'
   '-x+3/4, -z+1/4, y+1/2'
   '-x+0.6, z+0.85, y+0.45'
   'x+0.4, -z+0.35, -y+3/4'
   '-x+0.7, -z+0.3, -y+0.6'
   'x+1/2, z+0.9, y+0.4'
   'x+0.55, -z+0.2, y+0.55'
   '-x+0.65, z+0.8, -y+0.65'
   'z+0.85, y+0.55, -x+0.7'
   '-z+0.35, -y+0.65, x+1/2'
   'z+0.95, -y+0.6, x+0.55'
   '-z+1/4, y+0.4, -x+0.65'
   '-z+0.2, y+0.45, x+0.45'
   'z+0.8, -y+3/4, -x+3/4'
   '-z+0.3, -y+0.7, -x+0.6'
   'z+0.9, y+1/2, x+0.4'
   'x+0.4, y+0.6, z'
   '-x+0.6, -y+0.4, -z'
   '-x+3/4, -y+0.45, z+0.1'
   'x+0.45, y+3/4, -z+0.1'
   '-x+0.65, y+0.7, -z+0.15'
   'x+0.55, -y+1/2, z+0.05'
   'x+1/2, -y+0.55, -z+0.05'
   '-x+0.7, y+0.65, z+0.15'
   'z, x+0.4, y+0.6'
   '-z, -x+0.6, -y+0.4'
   'z+0.1, -x+3/4, -y+0.45'
   '-z+0.1, x+0.45, y+3/4'
   '-z+0.15, -x+0.65, y+0.7'
   'z+0.05, x+0.55, -y+1/2'
   '-z+0.05, x+1/2, -y+0.55'
   'z+0.15, -x+0.7, y+0.65'
   'y+0.6, z, x+0.4'
   '-y+0.4, -z, -x+0.6'
   '-y+0.45, z+0.1, -x+3/4'
   'y+3/4, -z+0.1, x+0.45'
   'y+0.7, -z+0.15, -x+0.65'
   '-y+1/2, z+0.05, x+0.55'
   '-y+0.55, -z+0.05, x+1/2'
   'y+0.65, z+0.15, -x+0.7'
   'y+3/4, x+0.45, -z+0.1'
   '-y+0.45, -x+3/4, z+0.1'
   '-y+0.4, -x+0.6, -z'
   'y+0.6, x+0.4, z'
   'y+0.65, -x+0.7, z+0.15'
   '-y+0.55, x+1/2, -z+0.05'
   '-y+1/2, x+0.55, z+0.05'
   'y+0.7, -x+0.65, -z+0.15'
   'x+0.55, z+0.05, -y+1/2'
   '-x+0.65, -z+0.15, y+0.7'
   '-x+0.7, z+0.15, y+0.65'
   'x+1/2, -z+0.05, -y+0.55'
   '-x+0.6, -z, -y+0.4'
   'x+0.4, z, y+0.6'
   'x+0.45, -z+0.1, y+3/4'
   '-x+3/4, z+0.1, -y+0.45'
   'z+0.15, y+0.65, -x+0.7'
   '-z+0.05, -y+0.55, x+1/2'
   'z+0.05, -y+1/2, x+0.55'
   '-z+0.15, y+0.7, -x+0.65'
   '-z+0.1, y+3/4, x+0.45'
   'z+0.1, -y+0.45, -x+3/4'
   '-z, -y+0.4, -x+0.6'
   'z, y+0.6, x+0.4'
   'x+0.4, y+0.7, z+0.1'
   '-x+0.6, -y+1/2, -z+0.1'
   '-x+3/4, -y+0.55, z'
   'x+0.45, y+0.65, -z'
   '-x+0.65, y+0.6, -z+0.05'
   'x+0.55, -y+0.4, z+0.15'
   'x+1/2, -y+0.45, -z+0.15'
   '-x+0.7, y+3/4, z+0.05'
   'z, x+1/2, y+0.7'
   '-z, -x+0.7, -y+1/2'
   'z+0.1, -x+0.65, -y+0.55'
   '-z+0.1, x+0.55, y+0.65'
   '-z+0.15, -x+3/4, y+0.6'
   'z+0.05, x+0.45, -y+0.4'
   '-z+0.05, x+0.4, -y+0.45'
   'z+0.15, -x+0.6, y+3/4'
   'y+0.6, z+0.1, x+1/2'
   '-y+0.4, -z+0.1, -x+0.7'
   '-y+0.45, z, -x+0.65'
   'y+3/4, -z, x+0.55'
   'y+0.7, -z+0.05, -x+3/4'
   '-y+1/2, z+0.15, x+0.45'
   '-y+0.55, -z+0.15, x+0.4'
   'y+0.65, z+0.05, -x+0.6'
   'y+3/4, x+0.55, -z'
   '-y+0.45, -x+0.65, z'
   '-y+0.4, -x+0.7, -z+0.1'
   'y+0.6, x+1/2, z+0.1'
   'y+0.65, -x+0.6, z+0.05'
   '-y+0.55, x+0.4, -z+0.15'
   '-y+1/2, x+0.45, z+0.15'
   'y+0.7, -x+3/4, -z+0.05'
   'x+0.55, z+0.15, -y+0.4'
   '-x+0.65, -z+0.05, y+0.6'
   '-x+0.7, z+0.05, y+3/4'
   'x+1/2, -z+0.15, -y+0.45'
   '-x+0.6, -z+0.1, -y+1/2'
   'x+0.4, z+0.1, y+0.7'
   'x+0.45, -z, y+0.65'
   '-x+3/4, z, -y+0.55'
   'z+0.15, y+3/4, -x+0.6'
   '-z+0.05, -y+0.45, x+0.4'
   'z+0.05, -y+0.4, x+0.45'
   '-z+0.15, y+0.6, -x+3/4'
   '-z+0.1, y+0.65, x+0.55'
   'z+0.1, -y+0.55, -x+0.65'
   '-z, -y+1/2, -x+0.7'
   'z, y+0.7, x+1/2'
   'x+1/2, y+0.6, z+0.1'
   '-x+0.7, -y+0.4, -z+0.1'
   '-x+0.65, -y+0.45, z'
   'x+0.55, y+3/4, -z'
   '-x+3/4, y+0.7, -z+0.05'
   'x+0.45, -y+1/2, z+0.15'
   'x+0.4, -y+0.55, -z+0.15'
   '-x+0.6, y+0.65, z+0.05'
   'z+0.1, x+0.4, y+0.7'
   '-z+0.1, -x+0.6, -y+1/2'
   'z, -x+3/4, -y+0.55'
   '-z, x+0.45, y+0.65'
   '-z+0.05, -x+0.65, y+0.6'
   'z+0.15, x+0.55, -y+0.4'
   '-z+0.15, x+1/2, -y+0.45'
   'z+0.05, -x+0.7, y+3/4'
   'y+0.7, z, x+1/2'
   '-y+1/2, -z, -x+0.7'
   '-y+0.55, z+0.1, -x+0.65'
   'y+0.65, -z+0.1, x+0.55'
   'y+0.6, -z+0.15, -x+3/4'
   '-y+0.4, z+0.05, x+0.45'
   '-y+0.45, -z+0.05, x+0.4'
   'y+3/4, z+0.15, -x+0.6'
   'y+0.65, x+0.45, -z'
   '-y+0.55, -x+3/4, z'
   '-y+1/2, -x+0.6, -z+0.1'
   'y+0.7, x+0.4, z+0.1'
   'y+3/4, -x+0.7, z+0.05'
   '-y+0.45, x+1/2, -z+0.15'
   '-y+0.4, x+0.55, z+0.15'
   'y+0.6, -x+0.65, -z+0.05'
   'x+0.45, z+0.05, -y+0.4'
   '-x+3/4, -z+0.15, y+0.6'
   '-x+0.6, z+0.15, y+3/4'
   'x+0.4, -z+0.05, -y+0.45'
   '-x+0.7, -z, -y+1/2'
   'x+1/2, z, y+0.7'
   'x+0.55, -z+0.1, y+0.65'
   '-x+0.65, z+0.1, -y+0.55'
   'z+0.05, y+0.65, -x+0.6'
   '-z+0.15, -y+0.55, x+0.4'
   'z+0.15, -y+1/2, x+0.45'
   '-z+0.05, y+0.7, -x+3/4'
   '-z, y+3/4, x+0.55'
   'z, -y+0.45, -x+0.65'
   '-z+0.1, -y+0.4, -x+0.7'
   'z+0.1, y+0.6, x+1/2'
   'x+1/2, y+0.7, z'
   '-x+0.7, -y+1/2, -z'
   '-x+0.65, -y+0.55, z+0.1'
   'x+0.55, y+0.65, -z+0.1'
   '-x+3/4, y+0.6, -z+0.15'
   'x+0.45, -y+0.4, z+0.05'
   'x+0.4, -y+0.45, -z+0.05'
   '-x+0.6, y+3/4, z+0.15'
   'z+0.1, x+1/2, y+0.6'
   '-z+0.1, -x+0.7, -y+0.4'
   'z, -x+0.65, -y+0.45'
   '-z, x+0.55, y+3/4'
   '-z+0.05, -x+3/4, y+0.7'
   'z+0.15, x+0.45, -y+1/2'
   '-z+0.15, x+0.4, -y+0.55'
   'z+0.05, -x+0.6, y+0.65'
   'y+0.7, z+0.1, x+0.4'
   '-y+1/2, -z+0.1, -x+0.6'
   '-y+0.55, z, -x+3/4'
   'y+0.65, -z, x+0.45'
   'y+0.6, -z+0.05, -x+0.65'
   '-y+0.4, z+0.15, x+0.55'
   '-y+0.45, -z+0.15, x+1/2'
   'y+3/4, z+0.05, -x+0.7'
   'y+0.65, x+0.55, -z+0.1'
   '-y+0.55, -x+0.65, z+0.1'
   '-y+1/2, -x+0.7, -z'
   'y+0.7, x+1/2, z'
   'y+3/4, -x+0.6, z+0.15'
   '-y+0.45, x+0.4, -z+0.05'
   '-y+0.4, x+0.45, z+0.05'
   'y+0.6, -x+3/4, -z+0.15'
   'x+0.45, z+0.15, -y+1/2'
   '-x+3/4, -z+0.05, y+0.7'
   '-x+0.6, z+0.05, y+0.65'
   'x+0.4, -z+0.15, -y+0.55'
   '-x+0.7, -z+0.1, -y+0.4'
   'x+1/2, z+0.1, y+0.6'
   'x+0.55, -z, y+3/4'
   '-x+0.65, z, -y+0.45'
   'z+0.05, y+3/4, -x+0.7'
   '-z+0.15, -y+0.45, x+1/2'
   'z+0.15, -y+0.4, x+0.55'
   '-z+0.05, y+0.6, -x+0.65'
   '-z, y+0.65, x+0.45'
   'z, -y+0.55, -x+3/4'
   '-z+0.1, -y+1/2, -x+0.6'
   'z+0.1, y+0.7, x+0.4'
   'x+0.4, y+0.6, z+0.2'
   '-x+0.6, -y+0.4, -z+0.8'
   '-x+3/4, -y+0.45, z+0.3'
   'x+0.45, y+3/4, -z+0.9'
   '-x+0.65, y+0.7, -z+0.95'
   'x+0.55, -y+1/2, z+1/4'
   'x+1/2, -y+0.55, -z+0.85'
   '-x+0.7, y+0.65, z+0.35'
   'z+0.2, x+0.4, y+0.6'
   '-z+0.8, -x+0.6, -y+0.4'
   'z+0.3, -x+3/4, -y+0.45'
   '-z+0.9, x+0.45, y+3/4'
   '-z+0.95, -x+0.65, y+0.7'
   'z+1/4, x+0.55, -y+1/2'
   '-z+0.85, x+1/2, -y+0.55'
   'z+0.35, -x+0.7, y+0.65'
   'y+0.6, z+0.2, x+0.4'
   '-y+0.4, -z+0.8, -x+0.6'
   '-y+0.45, z+0.3, -x+3/4'
   'y+3/4, -z+0.9, x+0.45'
   'y+0.7, -z+0.95, -x+0.65'
   '-y+1/2, z+1/4, x+0.55'
   '-y+0.55, -z+0.85, x+1/2'
   'y+0.65, z+0.35, -x+0.7'
   'y+3/4, x+0.45, -z+0.9'
   '-y+0.45, -x+3/4, z+0.3'
   '-y+0.4, -x+0.6, -z+0.8'
   'y+0.6, x+0.4, z+0.2'
   'y+0.65, -x+0.7, z+0.35'
   '-y+0.55, x+1/2, -z+0.85'
   '-y+1/2, x+0.55, z+1/4'
   'y+0.7, -x+0.65, -z+0.95'
   'x+0.55, z+1/4, -y+1/2'
   '-x+0.65, -z+0.95, y+0.7'
   '-x+0.7, z+0.35, y+0.65'
   'x+1/2, -z+0.85, -y+0.55'
   '-x+0.6, -z+0.8, -y+0.4'
   'x+0.4, z+0.2, y+0.6'
   'x+0.45, -z+0.9, y+3/4'
   '-x+3/4, z+0.3, -y+0.45'
   'z+0.35, y+0.65, -x+0.7'
   '-z+0.85, -y+0.55, x+1/2'
   'z+1/4, -y+1/2, x+0.55'
   '-z+0.95, y+0.7, -x+0.65'
   '-z+0.9, y+3/4, x+0.45'
   'z+0.3, -y+0.45, -x+3/4'
   '-z+0.8, -y+0.4, -x+0.6'
   'z+0.2, y+0.6, x+0.4'
   'x+0.4, y+0.7, z+0.3'
   '-x+0.6, -y+1/2, -z+0.9'
   '-x+3/4, -y+0.55, z+0.2'
   'x+0.45, y+0.65, -z+0.8'
   '-x+0.65, y+0.6, -z+0.85'
   'x+0.55, -y+0.4, z+0.35'
   'x+1/2, -y+0.45, -z+0.95'
   '-x+0.7, y+3/4, z+1/4'
   'z+0.2, x+1/2, y+0.7'
   '-z+0.8, -x+0.7, -y+1/2'
   'z+0.3, -x+0.65, -y+0.55'
   '-z+0.9, x+0.55, y+0.65'
   '-z+0.95, -x+3/4, y+0.6'
   'z+1/4, x+0.45, -y+0.4'
   '-z+0.85, x+0.4, -y+0.45'
   'z+0.35, -x+0.6, y+3/4'
   'y+0.6, z+0.3, x+1/2'
   '-y+0.4, -z+0.9, -x+0.7'
   '-y+0.45, z+0.2, -x+0.65'
   'y+3/4, -z+0.8, x+0.55'
   'y+0.7, -z+0.85, -x+3/4'
   '-y+1/2, z+0.35, x+0.45'
   '-y+0.55, -z+0.95, x+0.4'
   'y+0.65, z+1/4, -x+0.6'
   'y+3/4, x+0.55, -z+0.8'
   '-y+0.45, -x+0.65, z+0.2'
   '-y+0.4, -x+0.7, -z+0.9'
   'y+0.6, x+1/2, z+0.3'
   'y+0.65, -x+0.6, z+1/4'
   '-y+0.55, x+0.4, -z+0.95'
   '-y+1/2, x+0.45, z+0.35'
   'y+0.7, -x+3/4, -z+0.85'
   'x+0.55, z+0.35, -y+0.4'
   '-x+0.65, -z+0.85, y+0.6'
   '-x+0.7, z+1/4, y+3/4'
   'x+1/2, -z+0.95, -y+0.45'
   '-x+0.6, -z+0.9, -y+1/2'
   'x+0.4, z+0.3, y+0.7'
   'x+0.45, -z+0.8, y+0.65'
   '-x+3/4, z+0.2, -y+0.55'
   'z+0.35, y+3/4, -x+0.6'
   '-z+0.85, -y+0.45, x+0.4'
   'z+1/4, -y+0.4, x+0.45'
   '-z+0.95, y+0.6, -x+3/4'
   '-z+0.9, y+0.65, x+0.55'
   'z+0.3, -y+0.55, -x+0.65'
   '-z+0.8, -y+1/2, -x+0.7'
   'z+0.2, y+0.7, x+1/2'
   'x+1/2, y+0.6, z+0.3'
   '-x+0.7, -y+0.4, -z+0.9'
   '-x+0.65, -y+0.45, z+0.2'
   'x+0.55, y+3/4, -z+0.8'
   '-x+3/4, y+0.7, -z+0.85'
   'x+0.45, -y+1/2, z+0.35'
   'x+0.4, -y+0.55, -z+0.95'
   '-x+0.6, y+0.65, z+1/4'
   'z+0.3, x+0.4, y+0.7'
   '-z+0.9, -x+0.6, -y+1/2'
   'z+0.2, -x+3/4, -y+0.55'
   '-z+0.8, x+0.45, y+0.65'
   '-z+0.85, -x+0.65, y+0.6'
   'z+0.35, x+0.55, -y+0.4'
   '-z+0.95, x+1/2, -y+0.45'
   'z+1/4, -x+0.7, y+3/4'
   'y+0.7, z+0.2, x+1/2'
   '-y+1/2, -z+0.8, -x+0.7'
   '-y+0.55, z+0.3, -x+0.65'
   'y+0.65, -z+0.9, x+0.55'
   'y+0.6, -z+0.95, -x+3/4'
   '-y+0.4, z+1/4, x+0.45'
   '-y+0.45, -z+0.85, x+0.4'
   'y+3/4, z+0.35, -x+0.6'
   'y+0.65, x+0.45, -z+0.8'
   '-y+0.55, -x+3/4, z+0.2'
   '-y+1/2, -x+0.6, -z+0.9'
   'y+0.7, x+0.4, z+0.3'
   'y+3/4, -x+0.7, z+1/4'
   '-y+0.45, x+1/2, -z+0.95'
   '-y+0.4, x+0.55, z+0.35'
   'y+0.6, -x+0.65, -z+0.85'
   'x+0.45, z+1/4, -y+0.4'
   '-x+3/4, -z+0.95, y+0.6'
   '-x+0.6, z+0.35, y+3/4'
   'x+0.4, -z+0.85, -y+0.45'
   '-x+0.7, -z+0.8, -y+1/2'
   'x+1/2, z+0.2, y+0.7'
   'x+0.55, -z+0.9, y+0.65'
   '-x+0.65, z+0.3, -y+0.55'
   'z+1/4, y+0.65, -x+0.6'
   '-z+0.95, -y+0.55, x+0.4'
   'z+0.35, -y+1/2, x+0.45'
   '-z+0.85, y+0.7, -x+3/4'
   '-z+0.8, y+3/4, x+0.55'
   'z+0.2, -y+0.45, -x+0.65'
   '-z+0.9, -y+0.4, -x+0.7'
   'z+0.3, y+0.6, x+1/2'
   'x+1/2, y+0.7, z+0.2'
   '-x+0.7, -y+1/2, -z+0.8'
   '-x+0.65, -y+0.55, z+0.3'
   'x+0.55, y+0.65, -z+0.9'
   '-x+3/4, y+0.6, -z+0.95'
   'x+0.45, -y+0.4, z+1/4'
   'x+0.4, -y+0.45, -z+0.85'
   '-x+0.6, y+3/4, z+0.35'
   'z+0.3, x+1/2, y+0.6'
   '-z+0.9, -x+0.7, -y+0.4'
   'z+0.2, -x+0.65, -y+0.45'
   '-z+0.8, x+0.55, y+3/4'
   '-z+0.85, -x+3/4, y+0.7'
   'z+0.35, x+0.45, -y+1/2'
   '-z+0.95, x+0.4, -y+0.55'
   'z+1/4, -x+0.6, y+0.65'
   'y+0.7, z+0.3, x+0.4'
   '-y+1/2, -z+0.9, -x+0.6'
   '-y+0.55, z+0.2, -x+3/4'
   'y+0.65, -z+0.8, x+0.45'
   'y+0.6, -z+0.85, -x+0.65'
   '-y+0.4, z+0.35, x+0.55'
   '-y+0.45, -z+0.95, x+1/2'
   'y+3/4, z+1/4, -x+0.7'
   'y+0.65, x+0.55, -z+0.9'
   '-y+0.55, -x+0.65, z+0.3'
   '-y+1/2, -x+0.7, -z+0.8'
   'y+0.7, x+1/2, z+0.2'
   'y+3/4, -x+0.6, z+0.35'
   '-y+0.45, x+0.4, -z+0.85'
   '-y+0.4, x+0.45, z+1/4'
   'y+0.6, -x+3/4, -z+0.95'
   'x+0.45, z+0.35, -y+1/2'
   '-x+3/4, -z+0.85, y+0.7'
   '-x+0.6, z+1/4, y+0.65'
   'x+0.4, -z+0.95, -y+0.55'
   '-x+0.7, -z+0.9, -y+0.4'
   'x+1/2, z+0.3, y+0.6'
   'x+0.55, -z+0.8, y+3/4'
   '-x+0.65, z+0.2, -y+0.45'
   'z+1/4, y+3/4, -x+0.7'
   '-z+0.95, -y+0.45, x+1/2'
   'z+0.35, -y+0.4, x+0.55'
   '-z+0.85, y+0.6, -x+0.65'
   '-z+0.8, y+0.65, x+0.45'
   'z+0.2, -y+0.55, -x+3/4'
   '-z+0.9, -y+1/2, -x+0.6'
   'z+0.3, y+0.7, x+0.4'
   'x+0.4, y+0.6, z+0.4'
   '-x+0.6, -y+0.4, -z+0.6'
   '-x+3/4, -y+0.45, z+1/2'
   'x+0.45, y+3/4, -z+0.7'
   '-x+0.65, y+0.7, -z+3/4'
   'x+0.55, -y+1/2, z+0.45'
   'x+1/2, -y+0.55, -z+0.65'
   '-x+0.7, y+0.65, z+0.55'
   'z+0.4, x+0.4, y+0.6'
   '-z+0.6, -x+0.6, -y+0.4'
   'z+1/2, -x+3/4, -y+0.45'
   '-z+0.7, x+0.45, y+3/4'
   '-z+3/4, -x+0.65, y+0.7'
   'z+0.45, x+0.55, -y+1/2'
   '-z+0.65, x+1/2, -y+0.55'
   'z+0.55, -x+0.7, y+0.65'
   'y+0.6, z+0.4, x+0.4'
   '-y+0.4, -z+0.6, -x+0.6'
   '-y+0.45, z+1/2, -x+3/4'
   'y+3/4, -z+0.7, x+0.45'
   'y+0.7, -z+3/4, -x+0.65'
   '-y+1/2, z+0.45, x+0.55'
   '-y+0.55, -z+0.65, x+1/2'
   'y+0.65, z+0.55, -x+0.7'
   'y+3/4, x+0.45, -z+0.7'
   '-y+0.45, -x+3/4, z+1/2'
   '-y+0.4, -x+0.6, -z+0.6'
   'y+0.6, x+0.4, z+0.4'
   'y+0.65, -x+0.7, z+0.55'
   '-y+0.55, x+1/2, -z+0.65'
   '-y+1/2, x+0.55, z+0.45'
   'y+0.7, -x+0.65, -z+3/4'
   'x+0.55, z+0.45, -y+1/2'
   '-x+0.65, -z+3/4, y+0.7'
   '-x+0.7, z+0.55, y+0.65'
   'x+1/2, -z+0.65, -y+0.55'
   '-x+0.6, -z+0.6, -y+0.4'
   'x+0.4, z+0.4, y+0.6'
   'x+0.45, -z+0.7, y+3/4'
   '-x+3/4, z+1/2, -y+0.45'
   'z+0.55, y+0.65, -x+0.7'
   '-z+0.65, -y+0.55, x+1/2'
   'z+0.45, -y+1/2, x+0.55'
   '-z+3/4, y+0.7, -x+0.65'
   '-z+0.7, y+3/4, x+0.45'
   'z+1/2, -y+0.45, -x+3/4'
   '-z+0.6, -y+0.4, -x+0.6'
   'z+0.4, y+0.6, x+0.4'
   'x+0.4, y+0.7, z+1/2'
   '-x+0.6, -y+1/2, -z+0.7'
   '-x+3/4, -y+0.55, z+0.4'
   'x+0.45, y+0.65, -z+0.6'
   '-x+0.65, y+0.6, -z+0.65'
   'x+0.55, -y+0.4, z+0.55'
   'x+1/2, -y+0.45, -z+3/4'
   '-x+0.7, y+3/4, z+0.45'
   'z+0.4, x+1/2, y+0.7'
   '-z+0.6, -x+0.7, -y+1/2'
   'z+1/2, -x+0.65, -y+0.55'
   '-z+0.7, x+0.55, y+0.65'
   '-z+3/4, -x+3/4, y+0.6'
   'z+0.45, x+0.45, -y+0.4'
   '-z+0.65, x+0.4, -y+0.45'
   'z+0.55, -x+0.6, y+3/4'
   'y+0.6, z+1/2, x+1/2'
   '-y+0.4, -z+0.7, -x+0.7'
   '-y+0.45, z+0.4, -x+0.65'
   'y+3/4, -z+0.6, x+0.55'
   'y+0.7, -z+0.65, -x+3/4'
   '-y+1/2, z+0.55, x+0.45'
   '-y+0.55, -z+3/4, x+0.4'
   'y+0.65, z+0.45, -x+0.6'
   'y+3/4, x+0.55, -z+0.6'
   '-y+0.45, -x+0.65, z+0.4'
   '-y+0.4, -x+0.7, -z+0.7'
   'y+0.6, x+1/2, z+1/2'
   'y+0.65, -x+0.6, z+0.45'
   '-y+0.55, x+0.4, -z+3/4'
   '-y+1/2, x+0.45, z+0.55'
   'y+0.7, -x+3/4, -z+0.65'
   'x+0.55, z+0.55, -y+0.4'
   '-x+0.65, -z+0.65, y+0.6'
   '-x+0.7, z+0.45, y+3/4'
   'x+1/2, -z+3/4, -y+0.45'
   '-x+0.6, -z+0.7, -y+1/2'
   'x+0.4, z+1/2, y+0.7'
   'x+0.45, -z+0.6, y+0.65'
   '-x+3/4, z+0.4, -y+0.55'
   'z+0.55, y+3/4, -x+0.6'
   '-z+0.65, -y+0.45, x+0.4'
   'z+0.45, -y+0.4, x+0.45'
   '-z+3/4, y+0.6, -x+3/4'
   '-z+0.7, y+0.65, x+0.55'
   'z+1/2, -y+0.55, -x+0.65'
   '-z+0.6, -y+1/2, -x+0.7'
   'z+0.4, y+0.7, x+1/2'
   'x+1/2, y+0.6, z+1/2'
   '-x+0.7, -y+0.4, -z+0.7'
   '-x+0.65, -y+0.45, z+0.4'
   'x+0.55, y+3/4, -z+0.6'
   '-x+3/4, y+0.7, -z+0.65'
   'x+0.45, -y+1/2, z+0.55'
   'x+0.4, -y+0.55, -z+3/4'
   '-x+0.6, y+0.65, z+0.45'
   'z+1/2, x+0.4, y+0.7'
   '-z+0.7, -x+0.6, -y+1/2'
   'z+0.4, -x+3/4, -y+0.55'
   '-z+0.6, x+0.45, y+0.65'
   '-z+0.65, -x+0.65, y+0.6'
   'z+0.55, x+0.55, -y+0.4'
   '-z+3/4, x+1/2, -y+0.45'
   'z+0.45, -x+0.7, y+3/4'
   'y+0.7, z+0.4, x+1/2'
   '-y+1/2, -z+0.6, -x+0.7'
   '-y+0.55, z+1/2, -x+0.65'
   'y+0.65, -z+0.7, x+0.55'
   'y+0.6, -z+3/4, -x+3/4'
   '-y+0.4, z+0.45, x+0.45'
   '-y+0.45, -z+0.65, x+0.4'
   'y+3/4, z+0.55, -x+0.6'
   'y+0.65, x+0.45, -z+0.6'
   '-y+0.55, -x+3/4, z+0.4'
   '-y+1/2, -x+0.6, -z+0.7'
   'y+0.7, x+0.4, z+1/2'
   'y+3/4, -x+0.7, z+0.45'
   '-y+0.45, x+1/2, -z+3/4'
   '-y+0.4, x+0.55, z+0.55'
   'y+0.6, -x+0.65, -z+0.65'
   'x+0.45, z+0.45, -y+0.4'
   '-x+3/4, -z+3/4, y+0.6'
   '-x+0.6, z+0.55, y+3/4'
   'x+0.4, -z+0.65, -y+0.45'
   '-x+0.7, -z+0.6, -y+1/2'
   'x+1/2, z+0.4, y+0.7'
   'x+0.55, -z+0.7, y+0.65'
   '-x+0.65, z+1/2, -y+0.55'
   'z+0.45, y+0.65, -x+0.6'
   '-z+3/4, -y+0.55, x+0.4'
   'z+0.55, -y+1/2, x+0.45'
   '-z+0.65, y+0.7, -x+3/4'
   '-z+0.6, y+3/4, x+0.55'
   'z+0.4, -y+0.45, -x+0.65'
   '-z+0.7, -y+0.4, -x+0.7'
   'z+1/2, y+0.6, x+1/2'
   'x+1/2, y+0.7, z+0.4'
   '-x+0.7, -y+1/2, -z+0.6'
   '-x+0.65, -y+0.55, z+1/2'
   'x+0.55, y+0.65, -z+0.7'
   '-x+3/4, y+0.6, -z+3/4'
   'x+0.45, -y+0.4, z+0.45'
   'x+0.4, -y+0.45, -z+0.65'
   '-x+0.6, y+3/4, z+0.55'
   'z+1/2, x+1/2, y+0.6'
   '-z+0.7, -x+0.7, -y+0.4'
   'z+0.4, -x+0.65, -y+0.45'
   '-z+0.6, x+0.55, y+3/4'
   '-z+0.65, -x+3/4, y+0.7'
   'z+0.55, x+0.45, -y+1/2'
   '-z+3/4, x+0.4, -y+0.55'
   'z+0.45, -x+0.6, y+0.65'
   'y+0.7, z+1/2, x+0.4'
   '-y+1/2, -z+0.7, -x+0.6'
   '-y+0.55, z+0.4, -x+3/4'
   'y+0.65, -z+0.6, x+0.45'
   'y+0.6, -z+0.65, -x+0.65'
   '-y+0.4, z+0.55, x+0.55'
   '-y+0.45, -z+3/4, x+1/2'
   'y+3/4, z+0.45, -x+0.7'
   'y+0.65, x+0.55, -z+0.7'
   '-y+0.55, -x+0.65, z+1/2'
   '-y+1/2, -x+0.7, -z+0.6'
   'y+0.7, x+1/2, z+0.4'
   'y+3/4, -x+0.6, z+0.55'
   '-y+0.45, x+0.4, -z+0.65'
   '-y+0.4, x+0.45, z+0.45'
   'y+0.6, -x+3/4, -z+3/4'
   'x+0.45, z+0.55, -y+1/2'
   '-x+3/4, -z+0.65, y+0.7'
   '-x+0.6, z+0.45, y+0.65'
   'x+0.4, -z+3/4, -y+0.55'
   '-x+0.7, -z+0.7, -y+0.4'
   'x+1/2, z+1/2, y+0.6'
   'x+0.55, -z+0.6, y+3/4'
   '-x+0.65, z+0.4, -y+0.45'
   'z+0.45, y+3/4, -x+0.7'
   '-z+3/4, -y+0.45, x+1/2'
   'z+0.55, -y+0.4, x+0.55'
   '-z+0.65, y+0.6, -x+0.65'
   '-z+0.6, y+0.65, x+0.45'
   'z+0.4, -y+0.55, -x+3/4'
   '-z+0.7, -y+1/2, -x+0.6'
   'z+1/2, y+0.7, x+0.4'
   'x+0.4, y+0.6, z+0.6'
   '-x+0.6, -y+0.4, -z+0.4'
   '-x+3/4, -y+0.45, z+0.7'
   'x+0.45, y+3/4, -z+1/2'
   '-x+0.65, y+0.7, -z+0.55'
   'x+0.55, -y+1/2, z+0.65'
   'x+1/2, -y+0.55, -z+0.45'
   '-x+0.7, y+0.65, z+3/4'
   'z+0.6, x+0.4, y+0.6'
   '-z+0.4, -x+0.6, -y+0.4'
   'z+0.7, -x+3/4, -y+0.45'
   '-z+1/2, x+0.45, y+3/4'
   '-z+0.55, -x+0.65, y+0.7'
   'z+0.65, x+0.55, -y+1/2'
   '-z+0.45, x+1/2, -y+0.55'
   'z+3/4, -x+0.7, y+0.65'
   'y+0.6, z+0.6, x+0.4'
   '-y+0.4, -z+0.4, -x+0.6'
   '-y+0.45, z+0.7, -x+3/4'
   'y+3/4, -z+1/2, x+0.45'
   'y+0.7, -z+0.55, -x+0.65'
   '-y+1/2, z+0.65, x+0.55'
   '-y+0.55, -z+0.45, x+1/2'
   'y+0.65, z+3/4, -x+0.7'
   'y+3/4, x+0.45, -z+1/2'
   '-y+0.45, -x+3/4, z+0.7'
   '-y+0.4, -x+0.6, -z+0.4'
   'y+0.6, x+0.4, z+0.6'
   'y+0.65, -x+0.7, z+3/4'
   '-y+0.55, x+1/2, -z+0.45'
   '-y+1/2, x+0.55, z+0.65'
   'y+0.7, -x+0.65, -z+0.55'
   'x+0.55, z+0.65, -y+1/2'
   '-x+0.65, -z+0.55, y+0.7'
   '-x+0.7, z+3/4, y+0.65'
   'x+1/2, -z+0.45, -y+0.55'
   '-x+0.6, -z+0.4, -y+0.4'
   'x+0.4, z+0.6, y+0.6'
   'x+0.45, -z+1/2, y+3/4'
   '-x+3/4, z+0.7, -y+0.45'
   'z+3/4, y+0.65, -x+0.7'
   '-z+0.45, -y+0.55, x+1/2'
   'z+0.65, -y+1/2, x+0.55'
   '-z+0.55, y+0.7, -x+0.65'
   '-z+1/2, y+3/4, x+0.45'
   'z+0.7, -y+0.45, -x+3/4'
   '-z+0.4, -y+0.4, -x+0.6'
   'z+0.6, y+0.6, x+0.4'
   'x+0.4, y+0.7, z+0.7'
   '-x+0.6, -y+1/2, -z+1/2'
   '-x+3/4, -y+0.55, z+0.6'
   'x+0.45, y+0.65, -z+0.4'
   '-x+0.65, y+0.6, -z+0.45'
   'x+0.55, -y+0.4, z+3/4'
   'x+1/2, -y+0.45, -z+0.55'
   '-x+0.7, y+3/4, z+0.65'
   'z+0.6, x+1/2, y+0.7'
   '-z+0.4, -x+0.7, -y+1/2'
   'z+0.7, -x+0.65, -y+0.55'
   '-z+1/2, x+0.55, y+0.65'
   '-z+0.55, -x+3/4, y+0.6'
   'z+0.65, x+0.45, -y+0.4'
   '-z+0.45, x+0.4, -y+0.45'
   'z+3/4, -x+0.6, y+3/4'
   'y+0.6, z+0.7, x+1/2'
   '-y+0.4, -z+1/2, -x+0.7'
   '-y+0.45, z+0.6, -x+0.65'
   'y+3/4, -z+0.4, x+0.55'
   'y+0.7, -z+0.45, -x+3/4'
   '-y+1/2, z+3/4, x+0.45'
   '-y+0.55, -z+0.55, x+0.4'
   'y+0.65, z+0.65, -x+0.6'
   'y+3/4, x+0.55, -z+0.4'
   '-y+0.45, -x+0.65, z+0.6'
   '-y+0.4, -x+0.7, -z+1/2'
   'y+0.6, x+1/2, z+0.7'
   'y+0.65, -x+0.6, z+0.65'
   '-y+0.55, x+0.4, -z+0.55'
   '-y+1/2, x+0.45, z+3/4'
   'y+0.7, -x+3/4, -z+0.45'
   'x+0.55, z+3/4, -y+0.4'
   '-x+0.65, -z+0.45, y+0.6'
   '-x+0.7, z+0.65, y+3/4'
   'x+1/2, -z+0.55, -y+0.45'
   '-x+0.6, -z+1/2, -y+1/2'
   'x+0.4, z+0.7, y+0.7'
   'x+0.45, -z+0.4, y+0.65'
   '-x+3/4, z+0.6, -y+0.55'
   'z+3/4, y+3/4, -x+0.6'
   '-z+0.45, -y+0.45, x+0.4'
   'z+0.65, -y+0.4, x+0.45'
   '-z+0.55, y+0.6, -x+3/4'
   '-z+1/2, y+0.65, x+0.55'
   'z+0.7, -y+0.55, -x+0.65'
   '-z+0.4, -y+1/2, -x+0.7'
   'z+0.6, y+0.7, x+1/2'
   'x+1/2, y+0.6, z+0.7'
   '-x+0.7, -y+0.4, -z+1/2'
   '-x+0.65, -y+0.45, z+0.6'
   'x+0.55, y+3/4, -z+0.4'
   '-x+3/4, y+0.7, -z+0.45'
   'x+0.45, -y+1/2, z+3/4'
   'x+0.4, -y+0.55, -z+0.55'
   '-x+0.6, y+0.65, z+0.65'
   'z+0.7, x+0.4, y+0.7'
   '-z+1/2, -x+0.6, -y+1/2'
   'z+0.6, -x+3/4, -y+0.55'
   '-z+0.4, x+0.45, y+0.65'
   '-z+0.45, -x+0.65, y+0.6'
   'z+3/4, x+0.55, -y+0.4'
   '-z+0.55, x+1/2, -y+0.45'
   'z+0.65, -x+0.7, y+3/4'
   'y+0.7, z+0.6, x+1/2'
   '-y+1/2, -z+0.4, -x+0.7'
   '-y+0.55, z+0.7, -x+0.65'
   'y+0.65, -z+1/2, x+0.55'
   'y+0.6, -z+0.55, -x+3/4'
   '-y+0.4, z+0.65, x+0.45'
   '-y+0.45, -z+0.45, x+0.4'
   'y+3/4, z+3/4, -x+0.6'
   'y+0.65, x+0.45, -z+0.4'
   '-y+0.55, -x+3/4, z+0.6'
   '-y+1/2, -x+0.6, -z+1/2'
   'y+0.7, x+0.4, z+0.7'
   'y+3/4, -x+0.7, z+0.65'
   '-y+0.45, x+1/2, -z+0.55'
   '-y+0.4, x+0.55, z+3/4'
   'y+0.6, -x+0.65, -z+0.45'
   'x+0.45, z+0.65, -y+0.4'
   '-x+3/4, -z+0.55, y+0.6'
   '-x+0.6, z+3/4, y+3/4'
   'x+0.4, -z+0.45, -y+0.45'
   '-x+0.7, -z+0.4, -y+1/2'
   'x+1/2, z+0.6, y+0.7'
   'x+0.55, -z+1/2, y+0.65'
   '-x+0.65, z+0.7, -y+0.55'
   'z+0.65, y+0.65, -x+0.6'
   '-z+0.55, -y+0.55, x+0.4'
   'z+3/4, -y+1/2, x+0.45'
   '-z+0.45, y+0.7, -x+3/4'
   '-z+0.4, y+3/4, x+0.55'
   'z+0.6, -y+0.45, -x+0.65'
   '-z+1/2, -y+0.4, -x+0.7'
   'z+0.7, y+0.6, x+1/2'
   'x+1/2, y+0.7, z+0.6'
   '-x+0.7, -y+1/2, -z+0.4'
   '-x+0.65, -y+0.55, z+0.7'
   'x+0.55, y+0.65, -z+1/2'
   '-x+3/4, y+0.6, -z+0.55'
   'x+0.45, -y+0.4, z+0.65'
   'x+0.4, -y+0.45, -z+0.45'
   '-x+0.6, y+3/4, z+3/4'
   'z+0.7, x+1/2, y+0.6'
   '-z+1/2, -x+0.7, -y+0.4'
   'z+0.6, -x+0.65, -y+0.45'
   '-z+0.4, x+0.55, y+3/4'
   '-z+0.45, -x+3/4, y+0.7'
   'z+3/4, x+0.45, -y+1/2'
   '-z+0.55, x+0.4, -y+0.55'
   'z+0.65, -x+0.6, y+0.65'
   'y+0.7, z+0.7, x+0.4'
   '-y+1/2, -z+1/2, -x+0.6'
   '-y+0.55, z+0.6, -x+3/4'
   'y+0.65, -z+0.4, x+0.45'
   'y+0.6, -z+0.45, -x+0.65'
   '-y+0.4, z+3/4, x+0.55'
   '-y+0.45, -z+0.55, x+1/2'
   'y+3/4, z+0.65, -x+0.7'
   'y+0.65, x+0.55, -z+1/2'
   '-y+0.55, -x+0.65, z+0.7'
   '-y+1/2, -x+0.7, -z+0.4'
   'y+0.7, x+1/2, z+0.6'
   'y+3/4, -x+0.6, z+3/4'
   '-y+0.45, x+0.4, -z+0.45'
   '-y+0.4, x+0.45, z+0.65'
   'y+0.6, -x+3/4, -z+0.55'
   'x+0.45, z+3/4, -y+1/2'
   '-x+3/4, -z+0.45, y+0.7'
   '-x+0.6, z+0.65, y+0.65'
   'x+0.4, -z+0.55, -y+0.55'
   '-x+0.7, -z+1/2, -y+0.4'
   'x+1/2, z+0.7, y+0.6'
   'x+0.55, -z+0.4, y+3/4'
   '-x+0.65, z+0.6, -y+0.45'
   'z+0.65, y+3/4, -x+0.7'
   '-z+0.55, -y+0.45, x+1/2'
   'z+3/4, -y+0.4, x+0.55'
   '-z+0.45, y+0.6, -x+0.65'
   '-z+0.4, y+0.65, x+0.45'
   'z+0.6, -y+0.55, -x+3/4'
   '-z+1/2, -y+1/2, -x+0.6'
   'z+0.7, y+0.7, x+0.4'
   'x+0.4, y+0.6, z+0.8'
   '-x+0.6, -y+0.4, -z+0.2'
   '-x+3/4, -y+0.45, z+0.9'
   'x+0.45, y+3/4, -z+0.3'
   '-x+0.65, y+0.7, -z+0.35'
   'x+0.55, -y+1/2, z+0.85'
   'x+1/2, -y+0.55, -z+1/4'
   '-x+0.7, y+0.65, z+0.95'
   'z+0.8, x+0.4, y+0.6'
   '-z+0.2, -x+0.6, -y+0.4'
   'z+0.9, -x+3/4, -y+0.45'
   '-z+0.3, x+0.45, y+3/4'
   '-z+0.35, -x+0.65, y+0.7'
   'z+0.85, x+0.55, -y+1/2'
   '-z+1/4, x+1/2, -y+0.55'
   'z+0.95, -x+0.7, y+0.65'
   'y+0.6, z+0.8, x+0.4'
   '-y+0.4, -z+0.2, -x+0.6'
   '-y+0.45, z+0.9, -x+3/4'
   'y+3/4, -z+0.3, x+0.45'
   'y+0.7, -z+0.35, -x+0.65'
   '-y+1/2, z+0.85, x+0.55'
   '-y+0.55, -z+1/4, x+1/2'
   'y+0.65, z+0.95, -x+0.7'
   'y+3/4, x+0.45, -z+0.3'
   '-y+0.45, -x+3/4, z+0.9'
   '-y+0.4, -x+0.6, -z+0.2'
   'y+0.6, x+0.4, z+0.8'
   'y+0.65, -x+0.7, z+0.95'
   '-y+0.55, x+1/2, -z+1/4'
   '-y+1/2, x+0.55, z+0.85'
   'y+0.7, -x+0.65, -z+0.35'
   'x+0.55, z+0.85, -y+1/2'
   '-x+0.65, -z+0.35, y+0.7'
   '-x+0.7, z+0.95, y+0.65'
   'x+1/2, -z+1/4, -y+0.55'
   '-x+0.6, -z+0.2, -y+0.4'
   'x+0.4, z+0.8, y+0.6'
   'x+0.45, -z+0.3, y+3/4'
   '-x+3/4, z+0.9, -y+0.45'
   'z+0.95, y+0.65, -x+0.7'
   '-z+1/4, -y+0.55, x+1/2'
   'z+0.85, -y+1/2, x+0.55'
   '-z+0.35, y+0.7, -x+0.65'
   '-z+0.3, y+3/4, x+0.45'
   'z+0.9, -y+0.45, -x+3/4'
   '-z+0.2, -y+0.4, -x+0.6'
   'z+0.8, y+0.6, x+0.4'
   'x+0.4, y+0.7, z+0.9'
   '-x+0.6, -y+1/2, -z+0.3'
   '-x+3/4, -y+0.55, z+0.8'
   'x+0.45, y+0.65, -z+0.2'
   '-x+0.65, y+0.6, -z+1/4'
   'x+0.55, -y+0.4, z+0.95'
   'x+1/2, -y+0.45, -z+0.35'
   '-x+0.7, y+3/4, z+0.85'
   'z+0.8, x+1/2, y+0.7'
   '-z+0.2, -x+0.7, -y+1/2'
   'z+0.9, -x+0.65, -y+0.55'
   '-z+0.3, x+0.55, y+0.65'
   '-z+0.35, -x+3/4, y+0.6'
   'z+0.85, x+0.45, -y+0.4'
   '-z+1/4, x+0.4, -y+0.45'
   'z+0.95, -x+0.6, y+3/4'
   'y+0.6, z+0.9, x+1/2'
   '-y+0.4, -z+0.3, -x+0.7'
   '-y+0.45, z+0.8, -x+0.65'
   'y+3/4, -z+0.2, x+0.55'
   'y+0.7, -z+1/4, -x+3/4'
   '-y+1/2, z+0.95, x+0.45'
   '-y+0.55, -z+0.35, x+0.4'
   'y+0.65, z+0.85, -x+0.6'
   'y+3/4, x+0.55, -z+0.2'
   '-y+0.45, -x+0.65, z+0.8'
   '-y+0.4, -x+0.7, -z+0.3'
   'y+0.6, x+1/2, z+0.9'
   'y+0.65, -x+0.6, z+0.85'
   '-y+0.55, x+0.4, -z+0.35'
   '-y+1/2, x+0.45, z+0.95'
   'y+0.7, -x+3/4, -z+1/4'
   'x+0.55, z+0.95, -y+0.4'
   '-x+0.65, -z+1/4, y+0.6'
   '-x+0.7, z+0.85, y+3/4'
   'x+1/2, -z+0.35, -y+0.45'
   '-x+0.6, -z+0.3, -y+1/2'
   'x+0.4, z+0.9, y+0.7'
   'x+0.45, -z+0.2, y+0.65'
   '-x+3/4, z+0.8, -y+0.55'
   'z+0.95, y+3/4, -x+0.6'
   '-z+1/4, -y+0.45, x+0.4'
   'z+0.85, -y+0.4, x+0.45'
   '-z+0.35, y+0.6, -x+3/4'
   '-z+0.3, y+0.65, x+0.55'
   'z+0.9, -y+0.55, -x+0.65'
   '-z+0.2, -y+1/2, -x+0.7'
   'z+0.8, y+0.7, x+1/2'
   'x+1/2, y+0.6, z+0.9'
   '-x+0.7, -y+0.4, -z+0.3'
   '-x+0.65, -y+0.45, z+0.8'
   'x+0.55, y+3/4, -z+0.2'
   '-x+3/4, y+0.7, -z+1/4'
   'x+0.45, -y+1/2, z+0.95'
   'x+0.4, -y+0.55, -z+0.35'
   '-x+0.6, y+0.65, z+0.85'
   'z+0.9, x+0.4, y+0.7'
   '-z+0.3, -x+0.6, -y+1/2'
   'z+0.8, -x+3/4, -y+0.55'
   '-z+0.2, x+0.45, y+0.65'
   '-z+1/4, -x+0.65, y+0.6'
   'z+0.95, x+0.55, -y+0.4'
   '-z+0.35, x+1/2, -y+0.45'
   'z+0.85, -x+0.7, y+3/4'
   'y+0.7, z+0.8, x+1/2'
   '-y+1/2, -z+0.2, -x+0.7'
   '-y+0.55, z+0.9, -x+0.65'
   'y+0.65, -z+0.3, x+0.55'
   'y+0.6, -z+0.35, -x+3/4'
   '-y+0.4, z+0.85, x+0.45'
   '-y+0.45, -z+1/4, x+0.4'
   'y+3/4, z+0.95, -x+0.6'
   'y+0.65, x+0.45, -z+0.2'
   '-y+0.55, -x+3/4, z+0.8'
   '-y+1/2, -x+0.6, -z+0.3'
   'y+0.7, x+0.4, z+0.9'
   'y+3/4, -x+0.7, z+0.85'
   '-y+0.45, x+1/2, -z+0.35'
   '-y+0.4, x+0.55, z+0.95'
   'y+0.6, -x+0.65, -z+1/4'
   'x+0.45, z+0.85, -y+0.4'
   '-x+3/4, -z+0.35, y+0.6'
   '-x+0.6, z+0.95, y+3/4'
   'x+0.4, -z+1/4, -y+0.45'
   '-x+0.7, -z+0.2, -y+1/2'
   'x+1/2, z+0.8, y+0.7'
   'x+0.55, -z+0.3, y+0.65'
   '-x+0.65, z+0.9, -y+0.55'
   'z+0.85, y+0.65, -x+0.6'
   '-z+0.35, -y+0.55, x+0.4'
   'z+0.95, -y+1/2, x+0.45'
   '-z+1/4, y+0.7, -x+3/4'
   '-z+0.2, y+3/4, x+0.55'
   'z+0.8, -y+0.45, -x+0.65'
   '-z+0.3, -y+0.4, -x+0.7'
   'z+0.9, y+0.6, x+1/2'
   'x+1/2, y+0.7, z+0.8'
   '-x+0.7, -y+1/2, -z+0.2'
   '-x+0.65, -y+0.55, z+0.9'
   'x+0.55, y+0.65, -z+0.3'
   '-x+3/4, y+0.6, -z+0.35'
   'x+0.45, -y+0.4, z+0.85'
   'x+0.4, -y+0.45, -z+1/4'
   '-x+0.6, y+3/4, z+0.95'
   'z+0.9, x+1/2, y+0.6'
   '-z+0.3, -x+0.7, -y+0.4'
   'z+0.8, -x+0.65, -y+0.45'
   '-z+0.2, x+0.55, y+3/4'
   '-z+1/4, -x+3/4, y+0.7'
   'z+0.95, x+0.45, -y+1/2'
   '-z+0.35, x+0.4, -y+0.55'
   'z+0.85, -x+0.6, y+0.65'
   'y+0.7, z+0.9, x+0.4'
   '-y+1/2, -z+0.3, -x+0.6'
   '-y+0.55, z+0.8, -x+3/4'
   'y+0.65, -z+0.2, x+0.45'
   'y+0.6, -z+1/4, -x+0.65'
   '-y+0.4, z+0.95, x+0.55'
   '-y+0.45, -z+0.35, x+1/2'
   'y+3/4, z+0.85, -x+0.7'
   'y+0.65, x+0.55, -z+0.3'
   '-y+0.55, -x+0.65, z+0.9'
   '-y+1/2, -x+0.7, -z+0.2'
   'y+0.7, x+1/2, z+0.8'
   'y+3/4, -x+0.6, z+0.95'
   '-y+0.45, x+0.4, -z+1/4'
   '-y+0.4, x+0.45, z+0.85'
   'y+0.6, -x+3/4, -z+0.35'
   'x+0.45, z+0.95, -y+1/2'
   '-x+3/4, -z+1/4, y+0.7'
   '-x+0.6, z+0.85, y+0.65'
   'x+0.4, -z+0.35, -y+0.55'
   '-x+0.7, -z+0.3, -y+0.4'
   'x+1/2, z+0.9, y+0.6'
   'x+0.55, -z+0.2, y+3/4'
   '-x+0.65, z+0.8, -y+0.45'
   'z+0.85, y+3/4, -x+0.7'
   '-z+0.35, -y+0.45, x+1/2'
   'z+0.95, -y+0.4, x+0.55'
   '-z+1/4, y+0.6, -x+0.65'
   '-z+0.2, y+0.65, x+0.45'
   'z+0.8, -y+0.55, -x+3/4'
   '-z+0.3, -y+1/2, -x+0.6'
   'z+0.9, y+0.7, x+0.4'
   'x+0.4, y+0.8, z'
   '-x+0.6, -y+0.2, -z'
   '-x+3/4, -y+1/4, z+0.1'
   'x+0.45, y+0.95, -z+0.1'
   '-x+0.65, y+0.9, -z+0.15'
   'x+0.55, -y+0.3, z+0.05'
   'x+1/2, -y+0.35, -z+0.05'
   '-x+0.7, y+0.85, z+0.15'
   'z, x+0.4, y+0.8'
   '-z, -x+0.6, -y+0.2'
   'z+0.1, -x+3/4, -y+1/4'
   '-z+0.1, x+0.45, y+0.95'
   '-z+0.15, -x+0.65, y+0.9'
   'z+0.05, x+0.55, -y+0.3'
   '-z+0.05, x+1/2, -y+0.35'
   'z+0.15, -x+0.7, y+0.85'
   'y+0.8, z, x+0.4'
   '-y+0.2, -z, -x+0.6'
   '-y+1/4, z+0.1, -x+3/4'
   'y+0.95, -z+0.1, x+0.45'
   'y+0.9, -z+0.15, -x+0.65'
   '-y+0.3, z+0.05, x+0.55'
   '-y+0.35, -z+0.05, x+1/2'
   'y+0.85, z+0.15, -x+0.7'
   'y+0.95, x+0.45, -z+0.1'
   '-y+1/4, -x+3/4, z+0.1'
   '-y+0.2, -x+0.6, -z'
   'y+0.8, x+0.4, z'
   'y+0.85, -x+0.7, z+0.15'
   '-y+0.35, x+1/2, -z+0.05'
   '-y+0.3, x+0.55, z+0.05'
   'y+0.9, -x+0.65, -z+0.15'
   'x+0.55, z+0.05, -y+0.3'
   '-x+0.65, -z+0.15, y+0.9'
   '-x+0.7, z+0.15, y+0.85'
   'x+1/2, -z+0.05, -y+0.35'
   '-x+0.6, -z, -y+0.2'
   'x+0.4, z, y+0.8'
   'x+0.45, -z+0.1, y+0.95'
   '-x+3/4, z+0.1, -y+1/4'
   'z+0.15, y+0.85, -x+0.7'
   '-z+0.05, -y+0.35, x+1/2'
   'z+0.05, -y+0.3, x+0.55'
   '-z+0.15, y+0.9, -x+0.65'
   '-z+0.1, y+0.95, x+0.45'
   'z+0.1, -y+1/4, -x+3/4'
   '-z, -y+0.2, -x+0.6'
   'z, y+0.8, x+0.4'
   'x+0.4, y+0.9, z+0.1'
   '-x+0.6, -y+0.3, -z+0.1'
   '-x+3/4, -y+0.35, z'
   'x+0.45, y+0.85, -z'
   '-x+0.65, y+0.8, -z+0.05'
   'x+0.55, -y+0.2, z+0.15'
   'x+1/2, -y+1/4, -z+0.15'
   '-x+0.7, y+0.95, z+0.05'
   'z, x+1/2, y+0.9'
   '-z, -x+0.7, -y+0.3'
   'z+0.1, -x+0.65, -y+0.35'
   '-z+0.1, x+0.55, y+0.85'
   '-z+0.15, -x+3/4, y+0.8'
   'z+0.05, x+0.45, -y+0.2'
   '-z+0.05, x+0.4, -y+1/4'
   'z+0.15, -x+0.6, y+0.95'
   'y+0.8, z+0.1, x+1/2'
   '-y+0.2, -z+0.1, -x+0.7'
   '-y+1/4, z, -x+0.65'
   'y+0.95, -z, x+0.55'
   'y+0.9, -z+0.05, -x+3/4'
   '-y+0.3, z+0.15, x+0.45'
   '-y+0.35, -z+0.15, x+0.4'
   'y+0.85, z+0.05, -x+0.6'
   'y+0.95, x+0.55, -z'
   '-y+1/4, -x+0.65, z'
   '-y+0.2, -x+0.7, -z+0.1'
   'y+0.8, x+1/2, z+0.1'
   'y+0.85, -x+0.6, z+0.05'
   '-y+0.35, x+0.4, -z+0.15'
   '-y+0.3, x+0.45, z+0.15'
   'y+0.9, -x+3/4, -z+0.05'
   'x+0.55, z+0.15, -y+0.2'
   '-x+0.65, -z+0.05, y+0.8'
   '-x+0.7, z+0.05, y+0.95'
   'x+1/2, -z+0.15, -y+1/4'
   '-x+0.6, -z+0.1, -y+0.3'
   'x+0.4, z+0.1, y+0.9'
   'x+0.45, -z, y+0.85'
   '-x+3/4, z, -y+0.35'
   'z+0.15, y+0.95, -x+0.6'
   '-z+0.05, -y+1/4, x+0.4'
   'z+0.05, -y+0.2, x+0.45'
   '-z+0.15, y+0.8, -x+3/4'
   '-z+0.1, y+0.85, x+0.55'
   'z+0.1, -y+0.35, -x+0.65'
   '-z, -y+0.3, -x+0.7'
   'z, y+0.9, x+1/2'
   'x+1/2, y+0.8, z+0.1'
   '-x+0.7, -y+0.2, -z+0.1'
   '-x+0.65, -y+1/4, z'
   'x+0.55, y+0.95, -z'
   '-x+3/4, y+0.9, -z+0.05'
   'x+0.45, -y+0.3, z+0.15'
   'x+0.4, -y+0.35, -z+0.15'
   '-x+0.6, y+0.85, z+0.05'
   'z+0.1, x+0.4, y+0.9'
   '-z+0.1, -x+0.6, -y+0.3'
   'z, -x+3/4, -y+0.35'
   '-z, x+0.45, y+0.85'
   '-z+0.05, -x+0.65, y+0.8'
   'z+0.15, x+0.55, -y+0.2'
   '-z+0.15, x+1/2, -y+1/4'
   'z+0.05, -x+0.7, y+0.95'
   'y+0.9, z, x+1/2'
   '-y+0.3, -z, -x+0.7'
   '-y+0.35, z+0.1, -x+0.65'
   'y+0.85, -z+0.1, x+0.55'
   'y+0.8, -z+0.15, -x+3/4'
   '-y+0.2, z+0.05, x+0.45'
   '-y+1/4, -z+0.05, x+0.4'
   'y+0.95, z+0.15, -x+0.6'
   'y+0.85, x+0.45, -z'
   '-y+0.35, -x+3/4, z'
   '-y+0.3, -x+0.6, -z+0.1'
   'y+0.9, x+0.4, z+0.1'
   'y+0.95, -x+0.7, z+0.05'
   '-y+1/4, x+1/2, -z+0.15'
   '-y+0.2, x+0.55, z+0.15'
   'y+0.8, -x+0.65, -z+0.05'
   'x+0.45, z+0.05, -y+0.2'
   '-x+3/4, -z+0.15, y+0.8'
   '-x+0.6, z+0.15, y+0.95'
   'x+0.4, -z+0.05, -y+1/4'
   '-x+0.7, -z, -y+0.3'
   'x+1/2, z, y+0.9'
   'x+0.55, -z+0.1, y+0.85'
   '-x+0.65, z+0.1, -y+0.35'
   'z+0.05, y+0.85, -x+0.6'
   '-z+0.15, -y+0.35, x+0.4'
   'z+0.15, -y+0.3, x+0.45'
   '-z+0.05, y+0.9, -x+3/4'
   '-z, y+0.95, x+0.55'
   'z, -y+1/4, -x+0.65'
   '-z+0.1, -y+0.2, -x+0.7'
   'z+0.1, y+0.8, x+1/2'
   'x+1/2, y+0.9, z'
   '-x+0.7, -y+0.3, -z'
   '-x+0.65, -y+0.35, z+0.1'
   'x+0.55, y+0.85, -z+0.1'
   '-x+3/4, y+0.8, -z+0.15'
   'x+0.45, -y+0.2, z+0.05'
   'x+0.4, -y+1/4, -z+0.05'
   '-x+0.6, y+0.95, z+0.15'
   'z+0.1, x+1/2, y+0.8'
   '-z+0.1, -x+0.7, -y+0.2'
   'z, -x+0.65, -y+1/4'
   '-z, x+0.55, y+0.95'
   '-z+0.05, -x+3/4, y+0.9'
   'z+0.15, x+0.45, -y+0.3'
   '-z+0.15, x+0.4, -y+0.35'
   'z+0.05, -x+0.6, y+0.85'
   'y+0.9, z+0.1, x+0.4'
   '-y+0.3, -z+0.1, -x+0.6'
   '-y+0.35, z, -x+3/4'
   'y+0.85, -z, x+0.45'
   'y+0.8, -z+0.05, -x+0.65'
   '-y+0.2, z+0.15, x+0.55'
   '-y+1/4, -z+0.15, x+1/2'
   'y+0.95, z+0.05, -x+0.7'
   'y+0.85, x+0.55, -z+0.1'
   '-y+0.35, -x+0.65, z+0.1'
   '-y+0.3, -x+0.7, -z'
   'y+0.9, x+1/2, z'
   'y+0.95, -x+0.6, z+0.15'
   '-y+1/4, x+0.4, -z+0.05'
   '-y+0.2, x+0.45, z+0.05'
   'y+0.8, -x+3/4, -z+0.15'
   'x+0.45, z+0.15, -y+0.3'
   '-x+3/4, -z+0.05, y+0.9'
   '-x+0.6, z+0.05, y+0.85'
   'x+0.4, -z+0.15, -y+0.35'
   '-x+0.7, -z+0.1, -y+0.2'
   'x+1/2, z+0.1, y+0.8'
   'x+0.55, -z, y+0.95'
   '-x+0.65, z, -y+1/4'
   'z+0.05, y+0.95, -x+0.7'
   '-z+0.15, -y+1/4, x+1/2'
   'z+0.15, -y+0.2, x+0.55'
   '-z+0.05, y+0.8, -x+0.65'
   '-z, y+0.85, x+0.45'
   'z, -y+0.35, -x+3/4'
   '-z+0.1, -y+0.3, -x+0.6'
   'z+0.1, y+0.9, x+0.4'
   'x+0.4, y+0.8, z+0.2'
   '-x+0.6, -y+0.2, -z+0.8'
   '-x+3/4, -y+1/4, z+0.3'
   'x+0.45, y+0.95, -z+0.9'
   '-x+0.65, y+0.9, -z+0.95'
   'x+0.55, -y+0.3, z+1/4'
   'x+1/2, -y+0.35, -z+0.85'
   '-x+0.7, y+0.85, z+0.35'
   'z+0.2, x+0.4, y+0.8'
   '-z+0.8, -x+0.6, -y+0.2'
   'z+0.3, -x+3/4, -y+1/4'
   '-z+0.9, x+0.45, y+0.95'
   '-z+0.95, -x+0.65, y+0.9'
   'z+1/4, x+0.55, -y+0.3'
   '-z+0.85, x+1/2, -y+0.35'
   'z+0.35, -x+0.7, y+0.85'
   'y+0.8, z+0.2, x+0.4'
   '-y+0.2, -z+0.8, -x+0.6'
   '-y+1/4, z+0.3, -x+3/4'
   'y+0.95, -z+0.9, x+0.45'
   'y+0.9, -z+0.95, -x+0.65'
   '-y+0.3, z+1/4, x+0.55'
   '-y+0.35, -z+0.85, x+1/2'
   'y+0.85, z+0.35, -x+0.7'
   'y+0.95, x+0.45, -z+0.9'
   '-y+1/4, -x+3/4, z+0.3'
   '-y+0.2, -x+0.6, -z+0.8'
   'y+0.8, x+0.4, z+0.2'
   'y+0.85, -x+0.7, z+0.35'
   '-y+0.35, x+1/2, -z+0.85'
   '-y+0.3, x+0.55, z+1/4'
   'y+0.9, -x+0.65, -z+0.95'
   'x+0.55, z+1/4, -y+0.3'
   '-x+0.65, -z+0.95, y+0.9'
   '-x+0.7, z+0.35, y+0.85'
   'x+1/2, -z+0.85, -y+0.35'
   '-x+0.6, -z+0.8, -y+0.2'
   'x+0.4, z+0.2, y+0.8'
   'x+0.45, -z+0.9, y+0.95'
   '-x+3/4, z+0.3, -y+1/4'
   'z+0.35, y+0.85, -x+0.7'
   '-z+0.85, -y+0.35, x+1/2'
   'z+1/4, -y+0.3, x+0.55'
   '-z+0.95, y+0.9, -x+0.65'
   '-z+0.9, y+0.95, x+0.45'
   'z+0.3, -y+1/4, -x+3/4'
   '-z+0.8, -y+0.2, -x+0.6'
   'z+0.2, y+0.8, x+0.4'
   'x+0.4, y+0.9, z+0.3'
   '-x+0.6, -y+0.3, -z+0.9'
   '-x+3/4, -y+0.35, z+0.2'
   'x+0.45, y+0.85, -z+0.8'
   '-x+0.65, y+0.8, -z+0.85'
   'x+0.55, -y+0.2, z+0.35'
   'x+1/2, -y+1/4, -z+0.95'
   '-x+0.7, y+0.95, z+1/4'
   'z+0.2, x+1/2, y+0.9'
   '-z+0.8, -x+0.7, -y+0.3'
   'z+0.3, -x+0.65, -y+0.35'
   '-z+0.9, x+0.55, y+0.85'
   '-z+0.95, -x+3/4, y+0.8'
   'z+1/4, x+0.45, -y+0.2'
   '-z+0.85, x+0.4, -y+1/4'
   'z+0.35, -x+0.6, y+0.95'
   'y+0.8, z+0.3, x+1/2'
   '-y+0.2, -z+0.9, -x+0.7'
   '-y+1/4, z+0.2, -x+0.65'
   'y+0.95, -z+0.8, x+0.55'
   'y+0.9, -z+0.85, -x+3/4'
   '-y+0.3, z+0.35, x+0.45'
   '-y+0.35, -z+0.95, x+0.4'
   'y+0.85, z+1/4, -x+0.6'
   'y+0.95, x+0.55, -z+0.8'
   '-y+1/4, -x+0.65, z+0.2'
   '-y+0.2, -x+0.7, -z+0.9'
   'y+0.8, x+1/2, z+0.3'
   'y+0.85, -x+0.6, z+1/4'
   '-y+0.35, x+0.4, -z+0.95'
   '-y+0.3, x+0.45, z+0.35'
   'y+0.9, -x+3/4, -z+0.85'
   'x+0.55, z+0.35, -y+0.2'
   '-x+0.65, -z+0.85, y+0.8'
   '-x+0.7, z+1/4, y+0.95'
   'x+1/2, -z+0.95, -y+1/4'
   '-x+0.6, -z+0.9, -y+0.3'
   'x+0.4, z+0.3, y+0.9'
   'x+0.45, -z+0.8, y+0.85'
   '-x+3/4, z+0.2, -y+0.35'
   'z+0.35, y+0.95, -x+0.6'
   '-z+0.85, -y+1/4, x+0.4'
   'z+1/4, -y+0.2, x+0.45'
   '-z+0.95, y+0.8, -x+3/4'
   '-z+0.9, y+0.85, x+0.55'
   'z+0.3, -y+0.35, -x+0.65'
   '-z+0.8, -y+0.3, -x+0.7'
   'z+0.2, y+0.9, x+1/2'
   'x+1/2, y+0.8, z+0.3'
   '-x+0.7, -y+0.2, -z+0.9'
   '-x+0.65, -y+1/4, z+0.2'
   'x+0.55, y+0.95, -z+0.8'
   '-x+3/4, y+0.9, -z+0.85'
   'x+0.45, -y+0.3, z+0.35'
   'x+0.4, -y+0.35, -z+0.95'
   '-x+0.6, y+0.85, z+1/4'
   'z+0.3, x+0.4, y+0.9'
   '-z+0.9, -x+0.6, -y+0.3'
   'z+0.2, -x+3/4, -y+0.35'
   '-z+0.8, x+0.45, y+0.85'
   '-z+0.85, -x+0.65, y+0.8'
   'z+0.35, x+0.55, -y+0.2'
   '-z+0.95, x+1/2, -y+1/4'
   'z+1/4, -x+0.7, y+0.95'
   'y+0.9, z+0.2, x+1/2'
   '-y+0.3, -z+0.8, -x+0.7'
   '-y+0.35, z+0.3, -x+0.65'
   'y+0.85, -z+0.9, x+0.55'
   'y+0.8, -z+0.95, -x+3/4'
   '-y+0.2, z+1/4, x+0.45'
   '-y+1/4, -z+0.85, x+0.4'
   'y+0.95, z+0.35, -x+0.6'
   'y+0.85, x+0.45, -z+0.8'
   '-y+0.35, -x+3/4, z+0.2'
   '-y+0.3, -x+0.6, -z+0.9'
   'y+0.9, x+0.4, z+0.3'
   'y+0.95, -x+0.7, z+1/4'
   '-y+1/4, x+1/2, -z+0.95'
   '-y+0.2, x+0.55, z+0.35'
   'y+0.8, -x+0.65, -z+0.85'
   'x+0.45, z+1/4, -y+0.2'
   '-x+3/4, -z+0.95, y+0.8'
   '-x+0.6, z+0.35, y+0.95'
   'x+0.4, -z+0.85, -y+1/4'
   '-x+0.7, -z+0.8, -y+0.3'
   'x+1/2, z+0.2, y+0.9'
   'x+0.55, -z+0.9, y+0.85'
   '-x+0.65, z+0.3, -y+0.35'
   'z+1/4, y+0.85, -x+0.6'
   '-z+0.95, -y+0.35, x+0.4'
   'z+0.35, -y+0.3, x+0.45'
   '-z+0.85, y+0.9, -x+3/4'
   '-z+0.8, y+0.95, x+0.55'
   'z+0.2, -y+1/4, -x+0.65'
   '-z+0.9, -y+0.2, -x+0.7'
   'z+0.3, y+0.8, x+1/2'
   'x+1/2, y+0.9, z+0.2'
   '-x+0.7, -y+0.3, -z+0.8'
   '-x+0.65, -y+0.35, z+0.3'
   'x+0.55, y+0.85, -z+0.9'
   '-x+3/4, y+0.8, -z+0.95'
   'x+0.45, -y+0.2, z+1/4'
   'x+0.4, -y+1/4, -z+0.85'
   '-x+0.6, y+0.95, z+0.35'
   'z+0.3, x+1/2, y+0.8'
   '-z+0.9, -x+0.7, -y+0.2'
   'z+0.2, -x+0.65, -y+1/4'
   '-z+0.8, x+0.55, y+0.95'
   '-z+0.85, -x+3/4, y+0.9'
   'z+0.35, x+0.45, -y+0.3'
   '-z+0.95, x+0.4, -y+0.35'
   'z+1/4, -x+0.6, y+0.85'
   'y+0.9, z+0.3, x+0.4'
   '-y+0.3, -z+0.9, -x+0.6'
   '-y+0.35, z+0.2, -x+3/4'
   'y+0.85, -z+0.8, x+0.45'
   'y+0.8, -z+0.85, -x+0.65'
   '-y+0.2, z+0.35, x+0.55'
   '-y+1/4, -z+0.95, x+1/2'
   'y+0.95, z+1/4, -x+0.7'
   'y+0.85, x+0.55, -z+0.9'
   '-y+0.35, -x+0.65, z+0.3'
   '-y+0.3, -x+0.7, -z+0.8'
   'y+0.9, x+1/2, z+0.2'
   'y+0.95, -x+0.6, z+0.35'
   '-y+1/4, x+0.4, -z+0.85'
   '-y+0.2, x+0.45, z+1/4'
   'y+0.8, -x+3/4, -z+0.95'
   'x+0.45, z+0.35, -y+0.3'
   '-x+3/4, -z+0.85, y+0.9'
   '-x+0.6, z+1/4, y+0.85'
   'x+0.4, -z+0.95, -y+0.35'
   '-x+0.7, -z+0.9, -y+0.2'
   'x+1/2, z+0.3, y+0.8'
   'x+0.55, -z+0.8, y+0.95'
   '-x+0.65, z+0.2, -y+1/4'
   'z+1/4, y+0.95, -x+0.7'
   '-z+0.95, -y+1/4, x+1/2'
   'z+0.35, -y+0.2, x+0.55'
   '-z+0.85, y+0.8, -x+0.65'
   '-z+0.8, y+0.85, x+0.45'
   'z+0.2, -y+0.35, -x+3/4'
   '-z+0.9, -y+0.3, -x+0.6'
   'z+0.3, y+0.9, x+0.4'
   'x+0.4, y+0.8, z+0.4'
   '-x+0.6, -y+0.2, -z+0.6'
   '-x+3/4, -y+1/4, z+1/2'
   'x+0.45, y+0.95, -z+0.7'
   '-x+0.65, y+0.9, -z+3/4'
   'x+0.55, -y+0.3, z+0.45'
   'x+1/2, -y+0.35, -z+0.65'
   '-x+0.7, y+0.85, z+0.55'
   'z+0.4, x+0.4, y+0.8'
   '-z+0.6, -x+0.6, -y+0.2'
   'z+1/2, -x+3/4, -y+1/4'
   '-z+0.7, x+0.45, y+0.95'
   '-z+3/4, -x+0.65, y+0.9'
   'z+0.45, x+0.55, -y+0.3'
   '-z+0.65, x+1/2, -y+0.35'
   'z+0.55, -x+0.7, y+0.85'
   'y+0.8, z+0.4, x+0.4'
   '-y+0.2, -z+0.6, -x+0.6'
   '-y+1/4, z+1/2, -x+3/4'
   'y+0.95, -z+0.7, x+0.45'
   'y+0.9, -z+3/4, -x+0.65'
   '-y+0.3, z+0.45, x+0.55'
   '-y+0.35, -z+0.65, x+1/2'
   'y+0.85, z+0.55, -x+0.7'
   'y+0.95, x+0.45, -z+0.7'
   '-y+1/4, -x+3/4, z+1/2'
   '-y+0.2, -x+0.6, -z+0.6'
   'y+0.8, x+0.4, z+0.4'
   'y+0.85, -x+0.7, z+0.55'
   '-y+0.35, x+1/2, -z+0.65'
   '-y+0.3, x+0.55, z+0.45'
   'y+0.9, -x+0.65, -z+3/4'
   'x+0.55, z+0.45, -y+0.3'
   '-x+0.65, -z+3/4, y+0.9'
   '-x+0.7, z+0.55, y+0.85'
   'x+1/2, -z+0.65, -y+0.35'
   '-x+0.6, -z+0.6, -y+0.2'
   'x+0.4, z+0.4, y+0.8'
   'x+0.45, -z+0.7, y+0.95'
   '-x+3/4, z+1/2, -y+1/4'
   'z+0.55, y+0.85, -x+0.7'
   '-z+0.65, -y+0.35, x+1/2'
   'z+0.45, -y+0.3, x+0.55'
   '-z+3/4, y+0.9, -x+0.65'
   '-z+0.7, y+0.95, x+0.45'
   'z+1/2, -y+1/4, -x+3/4'
   '-z+0.6, -y+0.2, -x+0.6'
   'z+0.4, y+0.8, x+0.4'
   'x+0.4, y+0.9, z+1/2'
   '-x+0.6, -y+0.3, -z+0.7'
   '-x+3/4, -y+0.35, z+0.4'
   'x+0.45, y+0.85, -z+0.6'
   '-x+0.65, y+0.8, -z+0.65'
   'x+0.55, -y+0.2, z+0.55'
   'x+1/2, -y+1/4, -z+3/4'
   '-x+0.7, y+0.95, z+0.45'
   'z+0.4, x+1/2, y+0.9'
   '-z+0.6, -x+0.7, -y+0.3'
   'z+1/2, -x+0.65, -y+0.35'
   '-z+0.7, x+0.55, y+0.85'
   '-z+3/4, -x+3/4, y+0.8'
   'z+0.45, x+0.45, -y+0.2'
   '-z+0.65, x+0.4, -y+1/4'
   'z+0.55, -x+0.6, y+0.95'
   'y+0.8, z+1/2, x+1/2'
   '-y+0.2, -z+0.7, -x+0.7'
   '-y+1/4, z+0.4, -x+0.65'
   'y+0.95, -z+0.6, x+0.55'
   'y+0.9, -z+0.65, -x+3/4'
   '-y+0.3, z+0.55, x+0.45'
   '-y+0.35, -z+3/4, x+0.4'
   'y+0.85, z+0.45, -x+0.6'
   'y+0.95, x+0.55, -z+0.6'
   '-y+1/4, -x+0.65, z+0.4'
   '-y+0.2, -x+0.7, -z+0.7'
   'y+0.8, x+1/2, z+1/2'
   'y+0.85, -x+0.6, z+0.45'
   '-y+0.35, x+0.4, -z+3/4'
   '-y+0.3, x+0.45, z+0.55'
   'y+0.9, -x+3/4, -z+0.65'
   'x+0.55, z+0.55, -y+0.2'
   '-x+0.65, -z+0.65, y+0.8'
   '-x+0.7, z+0.45, y+0.95'
   'x+1/2, -z+3/4, -y+1/4'
   '-x+0.6, -z+0.7, -y+0.3'
   'x+0.4, z+1/2, y+0.9'
   'x+0.45, -z+0.6, y+0.85'
   '-x+3/4, z+0.4, -y+0.35'
   'z+0.55, y+0.95, -x+0.6'
   '-z+0.65, -y+1/4, x+0.4'
   'z+0.45, -y+0.2, x+0.45'
   '-z+3/4, y+0.8, -x+3/4'
   '-z+0.7, y+0.85, x+0.55'
   'z+1/2, -y+0.35, -x+0.65'
   '-z+0.6, -y+0.3, -x+0.7'
   'z+0.4, y+0.9, x+1/2'
   'x+1/2, y+0.8, z+1/2'
   '-x+0.7, -y+0.2, -z+0.7'
   '-x+0.65, -y+1/4, z+0.4'
   'x+0.55, y+0.95, -z+0.6'
   '-x+3/4, y+0.9, -z+0.65'
   'x+0.45, -y+0.3, z+0.55'
   'x+0.4, -y+0.35, -z+3/4'
   '-x+0.6, y+0.85, z+0.45'
   'z+1/2, x+0.4, y+0.9'
   '-z+0.7, -x+0.6, -y+0.3'
   'z+0.4, -x+3/4, -y+0.35'
   '-z+0.6, x+0.45, y+0.85'
   '-z+0.65, -x+0.65, y+0.8'
   'z+0.55, x+0.55, -y+0.2'
   '-z+3/4, x+1/2, -y+1/4'
   'z+0.45, -x+0.7, y+0.95'
   'y+0.9, z+0.4, x+1/2'
   '-y+0.3, -z+0.6, -x+0.7'
   '-y+0.35, z+1/2, -x+0.65'
   'y+0.85, -z+0.7, x+0.55'
   'y+0.8, -z+3/4, -x+3/4'
   '-y+0.2, z+0.45, x+0.45'
   '-y+1/4, -z+0.65, x+0.4'
   'y+0.95, z+0.55, -x+0.6'
   'y+0.85, x+0.45, -z+0.6'
   '-y+0.35, -x+3/4, z+0.4'
   '-y+0.3, -x+0.6, -z+0.7'
   'y+0.9, x+0.4, z+1/2'
   'y+0.95, -x+0.7, z+0.45'
   '-y+1/4, x+1/2, -z+3/4'
   '-y+0.2, x+0.55, z+0.55'
   'y+0.8, -x+0.65, -z+0.65'
   'x+0.45, z+0.45, -y+0.2'
   '-x+3/4, -z+3/4, y+0.8'
   '-x+0.6, z+0.55, y+0.95'
   'x+0.4, -z+0.65, -y+1/4'
   '-x+0.7, -z+0.6, -y+0.3'
   'x+1/2, z+0.4, y+0.9'
   'x+0.55, -z+0.7, y+0.85'
   '-x+0.65, z+1/2, -y+0.35'
   'z+0.45, y+0.85, -x+0.6'
   '-z+3/4, -y+0.35, x+0.4'
   'z+0.55, -y+0.3, x+0.45'
   '-z+0.65, y+0.9, -x+3/4'
   '-z+0.6, y+0.95, x+0.55'
   'z+0.4, -y+1/4, -x+0.65'
   '-z+0.7, -y+0.2, -x+0.7'
   'z+1/2, y+0.8, x+1/2'
   'x+1/2, y+0.9, z+0.4'
   '-x+0.7, -y+0.3, -z+0.6'
   '-x+0.65, -y+0.35, z+1/2'
   'x+0.55, y+0.85, -z+0.7'
   '-x+3/4, y+0.8, -z+3/4'
   'x+0.45, -y+0.2, z+0.45'
   'x+0.4, -y+1/4, -z+0.65'
   '-x+0.6, y+0.95, z+0.55'
   'z+1/2, x+1/2, y+0.8'
   '-z+0.7, -x+0.7, -y+0.2'
   'z+0.4, -x+0.65, -y+1/4'
   '-z+0.6, x+0.55, y+0.95'
   '-z+0.65, -x+3/4, y+0.9'
   'z+0.55, x+0.45, -y+0.3'
   '-z+3/4, x+0.4, -y+0.35'
   'z+0.45, -x+0.6, y+0.85'
   'y+0.9, z+1/2, x+0.4'
   '-y+0.3, -z+0.7, -x+0.6'
   '-y+0.35, z+0.4, -x+3/4'
   'y+0.85, -z+0.6, x+0.45'
   'y+0.8, -z+0.65, -x+0.65'
   '-y+0.2, z+0.55, x+0.55'
   '-y+1/4, -z+3/4, x+1/2'
   'y+0.95, z+0.45, -x+0.7'
   'y+0.85, x+0.55, -z+0.7'
   '-y+0.35, -x+0.65, z+1/2'
   '-y+0.3, -x+0.7, -z+0.6'
   'y+0.9, x+1/2, z+0.4'
   'y+0.95, -x+0.6, z+0.55'
   '-y+1/4, x+0.4, -z+0.65'
   '-y+0.2, x+0.45, z+0.45'
   'y+0.8, -x+3/4, -z+3/4'
   'x+0.45, z+0.55, -y+0.3'
   '-x+3/4, -z+0.65, y+0.9'
   '-x+0.6, z+0.45, y+0.85'
   'x+0.4, -z+3/4, -y+0.35'
   '-x+0.7, -z+0.7, -y+0.2'
   'x+1/2, z+1/2, y+0.8'
   'x+0.55, -z+0.6, y+0.95'
   '-x+0.65, z+0.4, -y+1/4'
   'z+0.45, y+0.95, -x+0.7'
   '-z+3/4, -y+1/4, x+1/2'
   'z+0.55, -y+0.2, x+0.55'
   '-z+0.65, y+0.8, -x+0.65'
   '-z+0.6, y+0.85, x+0.45'
   'z+0.4, -y+0.35, -x+3/4'
   '-z+0.7, -y+0.3, -x+0.6'
   'z+1/2, y+0.9, x+0.4'
   'x+0.4, y+0.8, z+0.6'
   '-x+0.6, -y+0.2, -z+0.4'
   '-x+3/4, -y+1/4, z+0.7'
   'x+0.45, y+0.95, -z+1/2'
   '-x+0.65, y+0.9, -z+0.55'
   'x+0.55, -y+0.3, z+0.65'
   'x+1/2, -y+0.35, -z+0.45'
   '-x+0.7, y+0.85, z+3/4'
   'z+0.6, x+0.4, y+0.8'
   '-z+0.4, -x+0.6, -y+0.2'
   'z+0.7, -x+3/4, -y+1/4'
   '-z+1/2, x+0.45, y+0.95'
   '-z+0.55, -x+0.65, y+0.9'
   'z+0.65, x+0.55, -y+0.3'
   '-z+0.45, x+1/2, -y+0.35'
   'z+3/4, -x+0.7, y+0.85'
   'y+0.8, z+0.6, x+0.4'
   '-y+0.2, -z+0.4, -x+0.6'
   '-y+1/4, z+0.7, -x+3/4'
   'y+0.95, -z+1/2, x+0.45'
   'y+0.9, -z+0.55, -x+0.65'
   '-y+0.3, z+0.65, x+0.55'
   '-y+0.35, -z+0.45, x+1/2'
   'y+0.85, z+3/4, -x+0.7'
   'y+0.95, x+0.45, -z+1/2'
   '-y+1/4, -x+3/4, z+0.7'
   '-y+0.2, -x+0.6, -z+0.4'
   'y+0.8, x+0.4, z+0.6'
   'y+0.85, -x+0.7, z+3/4'
   '-y+0.35, x+1/2, -z+0.45'
   '-y+0.3, x+0.55, z+0.65'
   'y+0.9, -x+0.65, -z+0.55'
   'x+0.55, z+0.65, -y+0.3'
   '-x+0.65, -z+0.55, y+0.9'
   '-x+0.7, z+3/4, y+0.85'
   'x+1/2, -z+0.45, -y+0.35'
   '-x+0.6, -z+0.4, -y+0.2'
   'x+0.4, z+0.6, y+0.8'
   'x+0.45, -z+1/2, y+0.95'
   '-x+3/4, z+0.7, -y+1/4'
   'z+3/4, y+0.85, -x+0.7'
   '-z+0.45, -y+0.35, x+1/2'
   'z+0.65, -y+0.3, x+0.55'
   '-z+0.55, y+0.9, -x+0.65'
   '-z+1/2, y+0.95, x+0.45'
   'z+0.7, -y+1/4, -x+3/4'
   '-z+0.4, -y+0.2, -x+0.6'
   'z+0.6, y+0.8, x+0.4'
   'x+0.4, y+0.9, z+0.7'
   '-x+0.6, -y+0.3, -z+1/2'
   '-x+3/4, -y+0.35, z+0.6'
   'x+0.45, y+0.85, -z+0.4'
   '-x+0.65, y+0.8, -z+0.45'
   'x+0.55, -y+0.2, z+3/4'
   'x+1/2, -y+1/4, -z+0.55'
   '-x+0.7, y+0.95, z+0.65'
   'z+0.6, x+1/2, y+0.9'
   '-z+0.4, -x+0.7, -y+0.3'
   'z+0.7, -x+0.65, -y+0.35'
   '-z+1/2, x+0.55, y+0.85'
   '-z+0.55, -x+3/4, y+0.8'
   'z+0.65, x+0.45, -y+0.2'
   '-z+0.45, x+0.4, -y+1/4'
   'z+3/4, -x+0.6, y+0.95'
   'y+0.8, z+0.7, x+1/2'
   '-y+0.2, -z+1/2, -x+0.7'
   '-y+1/4, z+0.6, -x+0.65'
   'y+0.95, -z+0.4, x+0.55'
   'y+0.9, -z+0.45, -x+3/4'
   '-y+0.3, z+3/4, x+0.45'
   '-y+0.35, -z+0.55, x+0.4'
   'y+0.85, z+0.65, -x+0.6'
   'y+0.95, x+0.55, -z+0.4'
   '-y+1/4, -x+0.65, z+0.6'
   '-y+0.2, -x+0.7, -z+1/2'
   'y+0.8, x+1/2, z+0.7'
   'y+0.85, -x+0.6, z+0.65'
   '-y+0.35, x+0.4, -z+0.55'
   '-y+0.3, x+0.45, z+3/4'
   'y+0.9, -x+3/4, -z+0.45'
   'x+0.55, z+3/4, -y+0.2'
   '-x+0.65, -z+0.45, y+0.8'
   '-x+0.7, z+0.65, y+0.95'
   'x+1/2, -z+0.55, -y+1/4'
   '-x+0.6, -z+1/2, -y+0.3'
   'x+0.4, z+0.7, y+0.9'
   'x+0.45, -z+0.4, y+0.85'
   '-x+3/4, z+0.6, -y+0.35'
   'z+3/4, y+0.95, -x+0.6'
   '-z+0.45, -y+1/4, x+0.4'
   'z+0.65, -y+0.2, x+0.45'
   '-z+0.55, y+0.8, -x+3/4'
   '-z+1/2, y+0.85, x+0.55'
   'z+0.7, -y+0.35, -x+0.65'
   '-z+0.4, -y+0.3, -x+0.7'
   'z+0.6, y+0.9, x+1/2'
   'x+1/2, y+0.8, z+0.7'
   '-x+0.7, -y+0.2, -z+1/2'
   '-x+0.65, -y+1/4, z+0.6'
   'x+0.55, y+0.95, -z+0.4'
   '-x+3/4, y+0.9, -z+0.45'
   'x+0.45, -y+0.3, z+3/4'
   'x+0.4, -y+0.35, -z+0.55'
   '-x+0.6, y+0.85, z+0.65'
   'z+0.7, x+0.4, y+0.9'
   '-z+1/2, -x+0.6, -y+0.3'
   'z+0.6, -x+3/4, -y+0.35'
   '-z+0.4, x+0.45, y+0.85'
   '-z+0.45, -x+0.65, y+0.8'
   'z+3/4, x+0.55, -y+0.2'
   '-z+0.55, x+1/2, -y+1/4'
   'z+0.65, -x+0.7, y+0.95'
   'y+0.9, z+0.6, x+1/2'
   '-y+0.3, -z+0.4, -x+0.7'
   '-y+0.35, z+0.7, -x+0.65'
   'y+0.85, -z+1/2, x+0.55'
   'y+0.8, -z+0.55, -x+3/4'
   '-y+0.2, z+0.65, x+0.45'
   '-y+1/4, -z+0.45, x+0.4'
   'y+0.95, z+3/4, -x+0.6'
   'y+0.85, x+0.45, -z+0.4'
   '-y+0.35, -x+3/4, z+0.6'
   '-y+0.3, -x+0.6, -z+1/2'
   'y+0.9, x+0.4, z+0.7'
   'y+0.95, -x+0.7, z+0.65'
   '-y+1/4, x+1/2, -z+0.55'
   '-y+0.2, x+0.55, z+3/4'
   'y+0.8, -x+0.65, -z+0.45'
   'x+0.45, z+0.65, -y+0.2'
   '-x+3/4, -z+0.55, y+0.8'
   '-x+0.6, z+3/4, y+0.95'
   'x+0.4, -z+0.45, -y+1/4'
   '-x+0.7, -z+0.4, -y+0.3'
   'x+1/2, z+0.6, y+0.9'
   'x+0.55, -z+1/2, y+0.85'
   '-x+0.65, z+0.7, -y+0.35'
   'z+0.65, y+0.85, -x+0.6'
   '-z+0.55, -y+0.35, x+0.4'
   'z+3/4, -y+0.3, x+0.45'
   '-z+0.45, y+0.9, -x+3/4'
   '-z+0.4, y+0.95, x+0.55'
   'z+0.6, -y+1/4, -x+0.65'
   '-z+1/2, -y+0.2, -x+0.7'
   'z+0.7, y+0.8, x+1/2'
   'x+1/2, y+0.9, z+0.6'
   '-x+0.7, -y+0.3, -z+0.4'
   '-x+0.65, -y+0.35, z+0.7'
   'x+0.55, y+0.85, -z+1/2'
   '-x+3/4, y+0.8, -z+0.55'
   'x+0.45, -y+0.2, z+0.65'
   'x+0.4, -y+1/4, -z+0.45'
   '-x+0.6, y+0.95, z+3/4'
   'z+0.7, x+1/2, y+0.8'
   '-z+1/2, -x+0.7, -y+0.2'
   'z+0.6, -x+0.65, -y+1/4'
   '-z+0.4, x+0.55, y+0.95'
   '-z+0.45, -x+3/4, y+0.9'
   'z+3/4, x+0.45, -y+0.3'
   '-z+0.55, x+0.4, -y+0.35'
   'z+0.65, -x+0.6, y+0.85'
   'y+0.9, z+0.7, x+0.4'
   '-y+0.3, -z+1/2, -x+0.6'
   '-y+0.35, z+0.6, -x+3/4'
   'y+0.85, -z+0.4, x+0.45'
   'y+0.8, -z+0.45, -x+0.65'
   '-y+0.2, z+3/4, x+0.55'
   '-y+1/4, -z+0.55, x+1/2'
   'y+0.95, z+0.65, -x+0.7'
   'y+0.85, x+0.55, -z+1/2'
   '-y+0.35, -x+0.65, z+0.7'
   '-y+0.3, -x+0.7, -z+0.4'
   'y+0.9, x+1/2, z+0.6'
   'y+0.95, -x+0.6, z+3/4'
   '-y+1/4, x+0.4, -z+0.45'
   '-y+0.2, x+0.45, z+0.65'
   'y+0.8, -x+3/4, -z+0.55'
   'x+0.45, z+3/4, -y+0.3'
   '-x+3/4, -z+0.45, y+0.9'
   '-x+0.6, z+0.65, y+0.85'
   'x+0.4, -z+0.55, -y+0.35'
   '-x+0.7, -z+1/2, -y+0.2'
   'x+1/2, z+0.7, y+0.8'
   'x+0.55, -z+0.4, y+0.95'
   '-x+0.65, z+0.6, -y+1/4'
   'z+0.65, y+0.95, -x+0.7'
   '-z+0.55, -y+1/4, x+1/2'
   'z+3/4, -y+0.2, x+0.55'
   '-z+0.45, y+0.8, -x+0.65'
   '-z+0.4, y+0.85, x+0.45'
   'z+0.6, -y+0.35, -x+3/4'
   '-z+1/2, -y+0.3, -x+0.6'
   'z+0.7, y+0.9, x+0.4'
   'x+0.4, y+0.8, z+0.8'
   '-x+0.6, -y+0.2, -z+0.2'
   '-x+3/4, -y+1/4, z+0.9'
   'x+0.45, y+0.95, -z+0.3'
   '-x+0.65, y+0.9, -z+0.35'
   'x+0.55, -y+0.3, z+0.85'
   'x+1/2, -y+0.35, -z+1/4'
   '-x+0.7, y+0.85, z+0.95'
   'z+0.8, x+0.4, y+0.8'
   '-z+0.2, -x+0.6, -y+0.2'
   'z+0.9, -x+3/4, -y+1/4'
   '-z+0.3, x+0.45, y+0.95'
   '-z+0.35, -x+0.65, y+0.9'
   'z+0.85, x+0.55, -y+0.3'
   '-z+1/4, x+1/2, -y+0.35'
   'z+0.95, -x+0.7, y+0.85'
   'y+0.8, z+0.8, x+0.4'
   '-y+0.2, -z+0.2, -x+0.6'
   '-y+1/4, z+0.9, -x+3/4'
   'y+0.95, -z+0.3, x+0.45'
   'y+0.9, -z+0.35, -x+0.65'
   '-y+0.3, z+0.85, x+0.55'
   '-y+0.35, -z+1/4, x+1/2'
   'y+0.85, z+0.95, -x+0.7'
   'y+0.95, x+0.45, -z+0.3'
   '-y+1/4, -x+3/4, z+0.9'
   '-y+0.2, -x+0.6, -z+0.2'
   'y+0.8, x+0.4, z+0.8'
   'y+0.85, -x+0.7, z+0.95'
   '-y+0.35, x+1/2, -z+1/4'
   '-y+0.3, x+0.55, z+0.85'
   'y+0.9, -x+0.65, -z+0.35'
   'x+0.55, z+0.85, -y+0.3'
   '-x+0.65, -z+0.35, y+0.9'
   '-x+0.7, z+0.95, y+0.85'
   'x+1/2, -z+1/4, -y+0.35'
   '-x+0.6, -z+0.2, -y+0.2'
   'x+0.4, z+0.8, y+0.8'
   'x+0.45, -z+0.3, y+0.95'
   '-x+3/4, z+0.9, -y+1/4'
   'z+0.95, y+0.85, -x+0.7'
   '-z+1/4, -y+0.35, x+1/2'
   'z+0.85, -y+0.3, x+0.55'
   '-z+0.35, y+0.9, -x+0.65'
   '-z+0.3, y+0.95, x+0.45'
   'z+0.9, -y+1/4, -x+3/4'
   '-z+0.2, -y+0.2, -x+0.6'
   'z+0.8, y+0.8, x+0.4'
   'x+0.4, y+0.9, z+0.9'
   '-x+0.6, -y+0.3, -z+0.3'
   '-x+3/4, -y+0.35, z+0.8'
   'x+0.45, y+0.85, -z+0.2'
   '-x+0.65, y+0.8, -z+1/4'
   'x+0.55, -y+0.2, z+0.95'
   'x+1/2, -y+1/4, -z+0.35'
   '-x+0.7, y+0.95, z+0.85'
   'z+0.8, x+1/2, y+0.9'
   '-z+0.2, -x+0.7, -y+0.3'
   'z+0.9, -x+0.65, -y+0.35'
   '-z+0.3, x+0.55, y+0.85'
   '-z+0.35, -x+3/4, y+0.8'
   'z+0.85, x+0.45, -y+0.2'
   '-z+1/4, x+0.4, -y+1/4'
   'z+0.95, -x+0.6, y+0.95'
   'y+0.8, z+0.9, x+1/2'
   '-y+0.2, -z+0.3, -x+0.7'
   '-y+1/4, z+0.8, -x+0.65'
   'y+0.95, -z+0.2, x+0.55'
   'y+0.9, -z+1/4, -x+3/4'
   '-y+0.3, z+0.95, x+0.45'
   '-y+0.35, -z+0.35, x+0.4'
   'y+0.85, z+0.85, -x+0.6'
   'y+0.95, x+0.55, -z+0.2'
   '-y+1/4, -x+0.65, z+0.8'
   '-y+0.2, -x+0.7, -z+0.3'
   'y+0.8, x+1/2, z+0.9'
   'y+0.85, -x+0.6, z+0.85'
   '-y+0.35, x+0.4, -z+0.35'
   '-y+0.3, x+0.45, z+0.95'
   'y+0.9, -x+3/4, -z+1/4'
   'x+0.55, z+0.95, -y+0.2'
   '-x+0.65, -z+1/4, y+0.8'
   '-x+0.7, z+0.85, y+0.95'
   'x+1/2, -z+0.35, -y+1/4'
   '-x+0.6, -z+0.3, -y+0.3'
   'x+0.4, z+0.9, y+0.9'
   'x+0.45, -z+0.2, y+0.85'
   '-x+3/4, z+0.8, -y+0.35'
   'z+0.95, y+0.95, -x+0.6'
   '-z+1/4, -y+1/4, x+0.4'
   'z+0.85, -y+0.2, x+0.45'
   '-z+0.35, y+0.8, -x+3/4'
   '-z+0.3, y+0.85, x+0.55'
   'z+0.9, -y+0.35, -x+0.65'
   '-z+0.2, -y+0.3, -x+0.7'
   'z+0.8, y+0.9, x+1/2'
   'x+1/2, y+0.8, z+0.9'
   '-x+0.7, -y+0.2, -z+0.3'
   '-x+0.65, -y+1/4, z+0.8'
   'x+0.55, y+0.95, -z+0.2'
   '-x+3/4, y+0.9, -z+1/4'
   'x+0.45, -y+0.3, z+0.95'
   'x+0.4, -y+0.35, -z+0.35'
   '-x+0.6, y+0.85, z+0.85'
   'z+0.9, x+0.4, y+0.9'
   '-z+0.3, -x+0.6, -y+0.3'
   'z+0.8, -x+3/4, -y+0.35'
   '-z+0.2, x+0.45, y+0.85'
   '-z+1/4, -x+0.65, y+0.8'
   'z+0.95, x+0.55, -y+0.2'
   '-z+0.35, x+1/2, -y+1/4'
   'z+0.85, -x+0.7, y+0.95'
   'y+0.9, z+0.8, x+1/2'
   '-y+0.3, -z+0.2, -x+0.7'
   '-y+0.35, z+0.9, -x+0.65'
   'y+0.85, -z+0.3, x+0.55'
   'y+0.8, -z+0.35, -x+3/4'
   '-y+0.2, z+0.85, x+0.45'
   '-y+1/4, -z+1/4, x+0.4'
   'y+0.95, z+0.95, -x+0.6'
   'y+0.85, x+0.45, -z+0.2'
   '-y+0.35, -x+3/4, z+0.8'
   '-y+0.3, -x+0.6, -z+0.3'
   'y+0.9, x+0.4, z+0.9'
   'y+0.95, -x+0.7, z+0.85'
   '-y+1/4, x+1/2, -z+0.35'
   '-y+0.2, x+0.55, z+0.95'
   'y+0.8, -x+0.65, -z+1/4'
   'x+0.45, z+0.85, -y+0.2'
   '-x+3/4, -z+0.35, y+0.8'
   '-x+0.6, z+0.95, y+0.95'
   'x+0.4, -z+1/4, -y+1/4'
   '-x+0.7, -z+0.2, -y+0.3'
   'x+1/2, z+0.8, y+0.9'
   'x+0.55, -z+0.3, y+0.85'
   '-x+0.65, z+0.9, -y+0.35'
   'z+0.85, y+0.85, -x+0.6'
   '-z+0.35, -y+0.35, x+0.4'
   'z+0.95, -y+0.3, x+0.45'
   '-z+1/4, y+0.9, -x+3/4'
   '-z+0.2, y+0.95, x+0.55'
   'z+0.8, -y+1/4, -x+0.65'
   '-z+0.3, -y+0.2, -x+0.7'
   'z+0.9, y+0.8, x+1/2'
   'x+1/2, y+0.9, z+0.8'
   '-x+0.7, -y+0.3, -z+0.2'
   '-x+0.65, -y+0.35, z+0.9'
   'x+0.55, y+0.85, -z+0.3'
   '-x+3/4, y+0.8, -z+0.35'
   'x+0.45, -y+0.2, z+0.85'
   'x+0.4, -y+1/4, -z+1/4'
   '-x+0.6, y+0.95, z+0.95'
   'z+0.9, x+1/2, y+0.8'
   '-z+0.3, -x+0.7, -y+0.2'
   'z+0.8, -x+0.65, -y+1/4'
   '-z+0.2, x+0.55, y+0.95'
   '-z+1/4, -x+3/4, y+0.9'
   'z+0.95, x+0.45, -y+0.3'
   '-z+0.35, x+0.4, -y+0.35'
   'z+0.85, -x+0.6, y+0.85'
   'y+0.9, z+0.9, x+0.4'
   '-y+0.3, -z+0.3, -x+0.6'
   '-y+0.35, z+0.8, -x+3/4'
   'y+0.85, -z+0.2, x+0.45'
   'y+0.8, -z+1/4, -x+0.65'
   '-y+0.2, z+0.95, x+0.55'
   '-y+1/4, -z+0.35, x+1/2'
   'y+0.95, z+0.85, -x+0.7'
   'y+0.85, x+0.55, -z+0.3'
   '-y+0.35, -x+0.65, z+0.9'
   '-y+0.3, -x+0.7, -z+0.2'
   'y+0.9, x+1/2, z+0.8'
   'y+0.95, -x+0.6, z+0.95'
   '-y+1/4, x+0.4, -z+1/4'
   '-y+0.2, x+0.45, z+0.85'
   'y+0.8, -x+3/4, -z+0.35'
   'x+0.45, z+0.95, -y+0.3'
   '-x+3/4, -z+1/4, y+0.9'
   '-x+0.6, z+0.85, y+0.85'
   'x+0.4, -z+0.35, -y+0.35'
   '-x+0.7, -z+0.3, -y+0.2'
   'x+1/2, z+0.9, y+0.8'
   'x+0.55, -z+0.2, y+0.95'
   '-x+0.65, z+0.8, -y+1/4'
   'z+0.85, y+0.95, -x+0.7'
   '-z+0.35, -y+1/4, x+1/2'
   'z+0.95, -y+0.2, x+0.55'
   '-z+1/4, y+0.8, -x+0.65'
   '-z+0.2, y+0.85, x+0.45'
   'z+0.8, -y+0.35, -x+3/4'
   '-z+0.3, -y+0.3, -x+0.6'
   'z+0.9, y+0.9, x+0.4'
   'x+0.6, y, z'
   '-x+0.4, -y, -z'
   '-x+0.55, -y+0.05, z+0.1'
   'x+0.65, y+0.15, -z+0.1'
   '-x+0.45, y+0.1, -z+0.15'
   'x+3/4, -y+0.1, z+0.05'
   'x+0.7, -y+0.15, -z+0.05'
   '-x+1/2, y+0.05, z+0.15'
   'z, x+0.6, y'
   '-z, -x+0.4, -y'
   'z+0.1, -x+0.55, -y+0.05'
   '-z+0.1, x+0.65, y+0.15'
   '-z+0.15, -x+0.45, y+0.1'
   'z+0.05, x+3/4, -y+0.1'
   '-z+0.05, x+0.7, -y+0.15'
   'z+0.15, -x+1/2, y+0.05'
   'y, z, x+0.6'
   '-y, -z, -x+0.4'
   '-y+0.05, z+0.1, -x+0.55'
   'y+0.15, -z+0.1, x+0.65'
   'y+0.1, -z+0.15, -x+0.45'
   '-y+0.1, z+0.05, x+3/4'
   '-y+0.15, -z+0.05, x+0.7'
   'y+0.05, z+0.15, -x+1/2'
   'y+0.15, x+0.65, -z+0.1'
   '-y+0.05, -x+0.55, z+0.1'
   '-y, -x+0.4, -z'
   'y, x+0.6, z'
   'y+0.05, -x+1/2, z+0.15'
   '-y+0.15, x+0.7, -z+0.05'
   '-y+0.1, x+3/4, z+0.05'
   'y+0.1, -x+0.45, -z+0.15'
   'x+3/4, z+0.05, -y+0.1'
   '-x+0.45, -z+0.15, y+0.1'
   '-x+1/2, z+0.15, y+0.05'
   'x+0.7, -z+0.05, -y+0.15'
   '-x+0.4, -z, -y'
   'x+0.6, z, y'
   'x+0.65, -z+0.1, y+0.15'
   '-x+0.55, z+0.1, -y+0.05'
   'z+0.15, y+0.05, -x+1/2'
   '-z+0.05, -y+0.15, x+0.7'
   'z+0.05, -y+0.1, x+3/4'
   '-z+0.15, y+0.1, -x+0.45'
   '-z+0.1, y+0.15, x+0.65'
   'z+0.1, -y+0.05, -x+0.55'
   '-z, -y, -x+0.4'
   'z, y, x+0.6'
   'x+0.6, y+0.1, z+0.1'
   '-x+0.4, -y+0.1, -z+0.1'
   '-x+0.55, -y+0.15, z'
   'x+0.65, y+0.05, -z'
   '-x+0.45, y, -z+0.05'
   'x+3/4, -y, z+0.15'
   'x+0.7, -y+0.05, -z+0.15'
   '-x+1/2, y+0.15, z+0.05'
   'z, x+0.7, y+0.1'
   '-z, -x+1/2, -y+0.1'
   'z+0.1, -x+0.45, -y+0.15'
   '-z+0.1, x+3/4, y+0.05'
   '-z+0.15, -x+0.55, y'
   'z+0.05, x+0.65, -y'
   '-z+0.05, x+0.6, -y+0.05'
   'z+0.15, -x+0.4, y+0.15'
   'y, z+0.1, x+0.7'
   '-y, -z+0.1, -x+1/2'
   '-y+0.05, z, -x+0.45'
   'y+0.15, -z, x+3/4'
   'y+0.1, -z+0.05, -x+0.55'
   '-y+0.1, z+0.15, x+0.65'
   '-y+0.15, -z+0.15, x+0.6'
   'y+0.05, z+0.05, -x+0.4'
   'y+0.15, x+3/4, -z'
   '-y+0.05, -x+0.45, z'
   '-y, -x+1/2, -z+0.1'
   'y, x+0.7, z+0.1'
   'y+0.05, -x+0.4, z+0.05'
   '-y+0.15, x+0.6, -z+0.15'
   '-y+0.1, x+0.65, z+0.15'
   'y+0.1, -x+0.55, -z+0.05'
   'x+3/4, z+0.15, -y'
   '-x+0.45, -z+0.05, y'
   '-x+1/2, z+0.05, y+0.15'
   'x+0.7, -z+0.15, -y+0.05'
   '-x+0.4, -z+0.1, -y+0.1'
   'x+0.6, z+0.1, y+0.1'
   'x+0.65, -z, y+0.05'
   '-x+0.55, z, -y+0.15'
   'z+0.15, y+0.15, -x+0.4'
   '-z+0.05, -y+0.05, x+0.6'
   'z+0.05, -y, x+0.65'
   '-z+0.15, y, -x+0.55'
   '-z+0.1, y+0.05, x+3/4'
   'z+0.1, -y+0.15, -x+0.45'
   '-z, -y+0.1, -x+1/2'
   'z, y+0.1, x+0.7'
   'x+0.7, y, z+0.1'
   '-x+1/2, -y, -z+0.1'
   '-x+0.45, -y+0.05, z'
   'x+3/4, y+0.15, -z'
   '-x+0.55, y+0.1, -z+0.05'
   'x+0.65, -y+0.1, z+0.15'
   'x+0.6, -y+0.15, -z+0.15'
   '-x+0.4, y+0.05, z+0.05'
   'z+0.1, x+0.6, y+0.1'
   '-z+0.1, -x+0.4, -y+0.1'
   'z, -x+0.55, -y+0.15'
   '-z, x+0.65, y+0.05'
   '-z+0.05, -x+0.45, y'
   'z+0.15, x+3/4, -y'
   '-z+0.15, x+0.7, -y+0.05'
   'z+0.05, -x+1/2, y+0.15'
   'y+0.1, z, x+0.7'
   '-y+0.1, -z, -x+1/2'
   '-y+0.15, z+0.1, -x+0.45'
   'y+0.05, -z+0.1, x+3/4'
   'y, -z+0.15, -x+0.55'
   '-y, z+0.05, x+0.65'
   '-y+0.05, -z+0.05, x+0.6'
   'y+0.15, z+0.15, -x+0.4'
   'y+0.05, x+0.65, -z'
   '-y+0.15, -x+0.55, z'
   '-y+0.1, -x+0.4, -z+0.1'
   'y+0.1, x+0.6, z+0.1'
   'y+0.15, -x+1/2, z+0.05'
   '-y+0.05, x+0.7, -z+0.15'
   '-y, x+3/4, z+0.15'
   'y, -x+0.45, -z+0.05'
   'x+0.65, z+0.05, -y'
   '-x+0.55, -z+0.15, y'
   '-x+0.4, z+0.15, y+0.15'
   'x+0.6, -z+0.05, -y+0.05'
   '-x+1/2, -z, -y+0.1'
   'x+0.7, z, y+0.1'
   'x+3/4, -z+0.1, y+0.05'
   '-x+0.45, z+0.1, -y+0.15'
   'z+0.05, y+0.05, -x+0.4'
   '-z+0.15, -y+0.15, x+0.6'
   'z+0.15, -y+0.1, x+0.65'
   '-z+0.05, y+0.1, -x+0.55'
   '-z, y+0.15, x+3/4'
   'z, -y+0.05, -x+0.45'
   '-z+0.1, -y, -x+1/2'
   'z+0.1, y, x+0.7'
   'x+0.7, y+0.1, z'
   '-x+1/2, -y+0.1, -z'
   '-x+0.45, -y+0.15, z+0.1'
   'x+3/4, y+0.05, -z+0.1'
   '-x+0.55, y, -z+0.15'
   'x+0.65, -y, z+0.05'
   'x+0.6, -y+0.05, -z+0.05'
   '-x+0.4, y+0.15, z+0.15'
   'z+0.1, x+0.7, y'
   '-z+0.1, -x+1/2, -y'
   'z, -x+0.45, -y+0.05'
   '-z, x+3/4, y+0.15'
   '-z+0.05, -x+0.55, y+0.1'
   'z+0.15, x+0.65, -y+0.1'
   '-z+0.15, x+0.6, -y+0.15'
   'z+0.05, -x+0.4, y+0.05'
   'y+0.1, z+0.1, x+0.6'
   '-y+0.1, -z+0.1, -x+0.4'
   '-y+0.15, z, -x+0.55'
   'y+0.05, -z, x+0.65'
   'y, -z+0.05, -x+0.45'
   '-y, z+0.15, x+3/4'
   '-y+0.05, -z+0.15, x+0.7'
   'y+0.15, z+0.05, -x+1/2'
   'y+0.05, x+3/4, -z+0.1'
   '-y+0.15, -x+0.45, z+0.1'
   '-y+0.1, -x+1/2, -z'
   'y+0.1, x+0.7, z'
   'y+0.15, -x+0.4, z+0.15'
   '-y+0.05, x+0.6, -z+0.05'
   '-y, x+0.65, z+0.05'
   'y, -x+0.55, -z+0.15'
   'x+0.65, z+0.15, -y+0.1'
   '-x+0.55, -z+0.05, y+0.1'
   '-x+0.4, z+0.05, y+0.05'
   'x+0.6, -z+0.15, -y+0.15'
   '-x+1/2, -z+0.1, -y'
   'x+0.7, z+0.1, y'
   'x+3/4, -z, y+0.15'
   '-x+0.45, z, -y+0.05'
   'z+0.05, y+0.15, -x+1/2'
   '-z+0.15, -y+0.05, x+0.7'
   'z+0.15, -y, x+3/4'
   '-z+0.05, y, -x+0.45'
   '-z, y+0.05, x+0.65'
   'z, -y+0.15, -x+0.55'
   '-z+0.1, -y+0.1, -x+0.4'
   'z+0.1, y+0.1, x+0.6'
   'x+0.6, y, z+0.2'
   '-x+0.4, -y, -z+0.8'
   '-x+0.55, -y+0.05, z+0.3'
   'x+0.65, y+0.15, -z+0.9'
   '-x+0.45, y+0.1, -z+0.95'
   'x+3/4, -y+0.1, z+1/4'
   'x+0.7, -y+0.15, -z+0.85'
   '-x+1/2, y+0.05, z+0.35'
   'z+0.2, x+0.6, y'
   '-z+0.8, -x+0.4, -y'
   'z+0.3, -x+0.55, -y+0.05'
   '-z+0.9, x+0.65, y+0.15'
   '-z+0.95, -x+0.45, y+0.1'
   'z+1/4, x+3/4, -y+0.1'
   '-z+0.85, x+0.7, -y+0.15'
   'z+0.35, -x+1/2, y+0.05'
   'y, z+0.2, x+0.6'
   '-y, -z+0.8, -x+0.4'
   '-y+0.05, z+0.3, -x+0.55'
   'y+0.15, -z+0.9, x+0.65'
   'y+0.1, -z+0.95, -x+0.45'
   '-y+0.1, z+1/4, x+3/4'
   '-y+0.15, -z+0.85, x+0.7'
   'y+0.05, z+0.35, -x+1/2'
   'y+0.15, x+0.65, -z+0.9'
   '-y+0.05, -x+0.55, z+0.3'
   '-y, -x+0.4, -z+0.8'
   'y, x+0.6, z+0.2'
   'y+0.05, -x+1/2, z+0.35'
   '-y+0.15, x+0.7, -z+0.85'
   '-y+0.1, x+3/4, z+1/4'
   'y+0.1, -x+0.45, -z+0.95'
   'x+3/4, z+1/4, -y+0.1'
   '-x+0.45, -z+0.95, y+0.1'
   '-x+1/2, z+0.35, y+0.05'
   'x+0.7, -z+0.85, -y+0.15'
   '-x+0.4, -z+0.8, -y'
   'x+0.6, z+0.2, y'
   'x+0.65, -z+0.9, y+0.15'
   '-x+0.55, z+0.3, -y+0.05'
   'z+0.35, y+0.05, -x+1/2'
   '-z+0.85, -y+0.15, x+0.7'
   'z+1/4, -y+0.1, x+3/4'
   '-z+0.95, y+0.1, -x+0.45'
   '-z+0.9, y+0.15, x+0.65'
   'z+0.3, -y+0.05, -x+0.55'
   '-z+0.8, -y, -x+0.4'
   'z+0.2, y, x+0.6'
   'x+0.6, y+0.1, z+0.3'
   '-x+0.4, -y+0.1, -z+0.9'
   '-x+0.55, -y+0.15, z+0.2'
   'x+0.65, y+0.05, -z+0.8'
   '-x+0.45, y, -z+0.85'
   'x+3/4, -y, z+0.35'
   'x+0.7, -y+0.05, -z+0.95'
   '-x+1/2, y+0.15, z+1/4'
   'z+0.2, x+0.7, y+0.1'
   '-z+0.8, -x+1/2, -y+0.1'
   'z+0.3, -x+0.45, -y+0.15'
   '-z+0.9, x+3/4, y+0.05'
   '-z+0.95, -x+0.55, y'
   'z+1/4, x+0.65, -y'
   '-z+0.85, x+0.6, -y+0.05'
   'z+0.35, -x+0.4, y+0.15'
   'y, z+0.3, x+0.7'
   '-y, -z+0.9, -x+1/2'
   '-y+0.05, z+0.2, -x+0.45'
   'y+0.15, -z+0.8, x+3/4'
   'y+0.1, -z+0.85, -x+0.55'
   '-y+0.1, z+0.35, x+0.65'
   '-y+0.15, -z+0.95, x+0.6'
   'y+0.05, z+1/4, -x+0.4'
   'y+0.15, x+3/4, -z+0.8'
   '-y+0.05, -x+0.45, z+0.2'
   '-y, -x+1/2, -z+0.9'
   'y, x+0.7, z+0.3'
   'y+0.05, -x+0.4, z+1/4'
   '-y+0.15, x+0.6, -z+0.95'
   '-y+0.1, x+0.65, z+0.35'
   'y+0.1, -x+0.55, -z+0.85'
   'x+3/4, z+0.35, -y'
   '-x+0.45, -z+0.85, y'
   '-x+1/2, z+1/4, y+0.15'
   'x+0.7, -z+0.95, -y+0.05'
   '-x+0.4, -z+0.9, -y+0.1'
   'x+0.6, z+0.3, y+0.1'
   'x+0.65, -z+0.8, y+0.05'
   '-x+0.55, z+0.2, -y+0.15'
   'z+0.35, y+0.15, -x+0.4'
   '-z+0.85, -y+0.05, x+0.6'
   'z+1/4, -y, x+0.65'
   '-z+0.95, y, -x+0.55'
   '-z+0.9, y+0.05, x+3/4'
   'z+0.3, -y+0.15, -x+0.45'
   '-z+0.8, -y+0.1, -x+1/2'
   'z+0.2, y+0.1, x+0.7'
   'x+0.7, y, z+0.3'
   '-x+1/2, -y, -z+0.9'
   '-x+0.45, -y+0.05, z+0.2'
   'x+3/4, y+0.15, -z+0.8'
   '-x+0.55, y+0.1, -z+0.85'
   'x+0.65, -y+0.1, z+0.35'
   'x+0.6, -y+0.15, -z+0.95'
   '-x+0.4, y+0.05, z+1/4'
   'z+0.3, x+0.6, y+0.1'
   '-z+0.9, -x+0.4, -y+0.1'
   'z+0.2, -x+0.55, -y+0.15'
   '-z+0.8, x+0.65, y+0.05'
   '-z+0.85, -x+0.45, y'
   'z+0.35, x+3/4, -y'
   '-z+0.95, x+0.7, -y+0.05'
   'z+1/4, -x+1/2, y+0.15'
   'y+0.1, z+0.2, x+0.7'
   '-y+0.1, -z+0.8, -x+1/2'
   '-y+0.15, z+0.3, -x+0.45'
   'y+0.05, -z+0.9, x+3/4'
   'y, -z+0.95, -x+0.55'
   '-y, z+1/4, x+0.65'
   '-y+0.05, -z+0.85, x+0.6'
   'y+0.15, z+0.35, -x+0.4'
   'y+0.05, x+0.65, -z+0.8'
   '-y+0.15, -x+0.55, z+0.2'
   '-y+0.1, -x+0.4, -z+0.9'
   'y+0.1, x+0.6, z+0.3'
   'y+0.15, -x+1/2, z+1/4'
   '-y+0.05, x+0.7, -z+0.95'
   '-y, x+3/4, z+0.35'
   'y, -x+0.45, -z+0.85'
   'x+0.65, z+1/4, -y'
   '-x+0.55, -z+0.95, y'
   '-x+0.4, z+0.35, y+0.15'
   'x+0.6, -z+0.85, -y+0.05'
   '-x+1/2, -z+0.8, -y+0.1'
   'x+0.7, z+0.2, y+0.1'
   'x+3/4, -z+0.9, y+0.05'
   '-x+0.45, z+0.3, -y+0.15'
   'z+1/4, y+0.05, -x+0.4'
   '-z+0.95, -y+0.15, x+0.6'
   'z+0.35, -y+0.1, x+0.65'
   '-z+0.85, y+0.1, -x+0.55'
   '-z+0.8, y+0.15, x+3/4'
   'z+0.2, -y+0.05, -x+0.45'
   '-z+0.9, -y, -x+1/2'
   'z+0.3, y, x+0.7'
   'x+0.7, y+0.1, z+0.2'
   '-x+1/2, -y+0.1, -z+0.8'
   '-x+0.45, -y+0.15, z+0.3'
   'x+3/4, y+0.05, -z+0.9'
   '-x+0.55, y, -z+0.95'
   'x+0.65, -y, z+1/4'
   'x+0.6, -y+0.05, -z+0.85'
   '-x+0.4, y+0.15, z+0.35'
   'z+0.3, x+0.7, y'
   '-z+0.9, -x+1/2, -y'
   'z+0.2, -x+0.45, -y+0.05'
   '-z+0.8, x+3/4, y+0.15'
   '-z+0.85, -x+0.55, y+0.1'
   'z+0.35, x+0.65, -y+0.1'
   '-z+0.95, x+0.6, -y+0.15'
   'z+1/4, -x+0.4, y+0.05'
   'y+0.1, z+0.3, x+0.6'
   '-y+0.1, -z+0.9, -x+0.4'
   '-y+0.15, z+0.2, -x+0.55'
   'y+0.05, -z+0.8, x+0.65'
   'y, -z+0.85, -x+0.45'
   '-y, z+0.35, x+3/4'
   '-y+0.05, -z+0.95, x+0.7'
   'y+0.15, z+1/4, -x+1/2'
   'y+0.05, x+3/4, -z+0.9'
   '-y+0.15, -x+0.45, z+0.3'
   '-y+0.1, -x+1/2, -z+0.8'
   'y+0.1, x+0.7, z+0.2'
   'y+0.15, -x+0.4, z+0.35'
   '-y+0.05, x+0.6, -z+0.85'
   '-y, x+0.65, z+1/4'
   'y, -x+0.55, -z+0.95'
   'x+0.65, z+0.35, -y+0.1'
   '-x+0.55, -z+0.85, y+0.1'
   '-x+0.4, z+1/4, y+0.05'
   'x+0.6, -z+0.95, -y+0.15'
   '-x+1/2, -z+0.9, -y'
   'x+0.7, z+0.3, y'
   'x+3/4, -z+0.8, y+0.15'
   '-x+0.45, z+0.2, -y+0.05'
   'z+1/4, y+0.15, -x+1/2'
   '-z+0.95, -y+0.05, x+0.7'
   'z+0.35, -y, x+3/4'
   '-z+0.85, y, -x+0.45'
   '-z+0.8, y+0.05, x+0.65'
   'z+0.2, -y+0.15, -x+0.55'
   '-z+0.9, -y+0.1, -x+0.4'
   'z+0.3, y+0.1, x+0.6'
   'x+0.6, y, z+0.4'
   '-x+0.4, -y, -z+0.6'
   '-x+0.55, -y+0.05, z+1/2'
   'x+0.65, y+0.15, -z+0.7'
   '-x+0.45, y+0.1, -z+3/4'
   'x+3/4, -y+0.1, z+0.45'
   'x+0.7, -y+0.15, -z+0.65'
   '-x+1/2, y+0.05, z+0.55'
   'z+0.4, x+0.6, y'
   '-z+0.6, -x+0.4, -y'
   'z+1/2, -x+0.55, -y+0.05'
   '-z+0.7, x+0.65, y+0.15'
   '-z+3/4, -x+0.45, y+0.1'
   'z+0.45, x+3/4, -y+0.1'
   '-z+0.65, x+0.7, -y+0.15'
   'z+0.55, -x+1/2, y+0.05'
   'y, z+0.4, x+0.6'
   '-y, -z+0.6, -x+0.4'
   '-y+0.05, z+1/2, -x+0.55'
   'y+0.15, -z+0.7, x+0.65'
   'y+0.1, -z+3/4, -x+0.45'
   '-y+0.1, z+0.45, x+3/4'
   '-y+0.15, -z+0.65, x+0.7'
   'y+0.05, z+0.55, -x+1/2'
   'y+0.15, x+0.65, -z+0.7'
   '-y+0.05, -x+0.55, z+1/2'
   '-y, -x+0.4, -z+0.6'
   'y, x+0.6, z+0.4'
   'y+0.05, -x+1/2, z+0.55'
   '-y+0.15, x+0.7, -z+0.65'
   '-y+0.1, x+3/4, z+0.45'
   'y+0.1, -x+0.45, -z+3/4'
   'x+3/4, z+0.45, -y+0.1'
   '-x+0.45, -z+3/4, y+0.1'
   '-x+1/2, z+0.55, y+0.05'
   'x+0.7, -z+0.65, -y+0.15'
   '-x+0.4, -z+0.6, -y'
   'x+0.6, z+0.4, y'
   'x+0.65, -z+0.7, y+0.15'
   '-x+0.55, z+1/2, -y+0.05'
   'z+0.55, y+0.05, -x+1/2'
   '-z+0.65, -y+0.15, x+0.7'
   'z+0.45, -y+0.1, x+3/4'
   '-z+3/4, y+0.1, -x+0.45'
   '-z+0.7, y+0.15, x+0.65'
   'z+1/2, -y+0.05, -x+0.55'
   '-z+0.6, -y, -x+0.4'
   'z+0.4, y, x+0.6'
   'x+0.6, y+0.1, z+1/2'
   '-x+0.4, -y+0.1, -z+0.7'
   '-x+0.55, -y+0.15, z+0.4'
   'x+0.65, y+0.05, -z+0.6'
   '-x+0.45, y, -z+0.65'
   'x+3/4, -y, z+0.55'
   'x+0.7, -y+0.05, -z+3/4'
   '-x+1/2, y+0.15, z+0.45'
   'z+0.4, x+0.7, y+0.1'
   '-z+0.6, -x+1/2, -y+0.1'
   'z+1/2, -x+0.45, -y+0.15'
   '-z+0.7, x+3/4, y+0.05'
   '-z+3/4, -x+0.55, y'
   'z+0.45, x+0.65, -y'
   '-z+0.65, x+0.6, -y+0.05'
   'z+0.55, -x+0.4, y+0.15'
   'y, z+1/2, x+0.7'
   '-y, -z+0.7, -x+1/2'
   '-y+0.05, z+0.4, -x+0.45'
   'y+0.15, -z+0.6, x+3/4'
   'y+0.1, -z+0.65, -x+0.55'
   '-y+0.1, z+0.55, x+0.65'
   '-y+0.15, -z+3/4, x+0.6'
   'y+0.05, z+0.45, -x+0.4'
   'y+0.15, x+3/4, -z+0.6'
   '-y+0.05, -x+0.45, z+0.4'
   '-y, -x+1/2, -z+0.7'
   'y, x+0.7, z+1/2'
   'y+0.05, -x+0.4, z+0.45'
   '-y+0.15, x+0.6, -z+3/4'
   '-y+0.1, x+0.65, z+0.55'
   'y+0.1, -x+0.55, -z+0.65'
   'x+3/4, z+0.55, -y'
   '-x+0.45, -z+0.65, y'
   '-x+1/2, z+0.45, y+0.15'
   'x+0.7, -z+3/4, -y+0.05'
   '-x+0.4, -z+0.7, -y+0.1'
   'x+0.6, z+1/2, y+0.1'
   'x+0.65, -z+0.6, y+0.05'
   '-x+0.55, z+0.4, -y+0.15'
   'z+0.55, y+0.15, -x+0.4'
   '-z+0.65, -y+0.05, x+0.6'
   'z+0.45, -y, x+0.65'
   '-z+3/4, y, -x+0.55'
   '-z+0.7, y+0.05, x+3/4'
   'z+1/2, -y+0.15, -x+0.45'
   '-z+0.6, -y+0.1, -x+1/2'
   'z+0.4, y+0.1, x+0.7'
   'x+0.7, y, z+1/2'
   '-x+1/2, -y, -z+0.7'
   '-x+0.45, -y+0.05, z+0.4'
   'x+3/4, y+0.15, -z+0.6'
   '-x+0.55, y+0.1, -z+0.65'
   'x+0.65, -y+0.1, z+0.55'
   'x+0.6, -y+0.15, -z+3/4'
   '-x+0.4, y+0.05, z+0.45'
   'z+1/2, x+0.6, y+0.1'
   '-z+0.7, -x+0.4, -y+0.1'
   'z+0.4, -x+0.55, -y+0.15'
   '-z+0.6, x+0.65, y+0.05'
   '-z+0.65, -x+0.45, y'
   'z+0.55, x+3/4, -y'
   '-z+3/4, x+0.7, -y+0.05'
   'z+0.45, -x+1/2, y+0.15'
   'y+0.1, z+0.4, x+0.7'
   '-y+0.1, -z+0.6, -x+1/2'
   '-y+0.15, z+1/2, -x+0.45'
   'y+0.05, -z+0.7, x+3/4'
   'y, -z+3/4, -x+0.55'
   '-y, z+0.45, x+0.65'
   '-y+0.05, -z+0.65, x+0.6'
   'y+0.15, z+0.55, -x+0.4'
   'y+0.05, x+0.65, -z+0.6'
   '-y+0.15, -x+0.55, z+0.4'
   '-y+0.1, -x+0.4, -z+0.7'
   'y+0.1, x+0.6, z+1/2'
   'y+0.15, -x+1/2, z+0.45'
   '-y+0.05, x+0.7, -z+3/4'
   '-y, x+3/4, z+0.55'
   'y, -x+0.45, -z+0.65'
   'x+0.65, z+0.45, -y'
   '-x+0.55, -z+3/4, y'
   '-x+0.4, z+0.55, y+0.15'
   'x+0.6, -z+0.65, -y+0.05'
   '-x+1/2, -z+0.6, -y+0.1'
   'x+0.7, z+0.4, y+0.1'
   'x+3/4, -z+0.7, y+0.05'
   '-x+0.45, z+1/2, -y+0.15'
   'z+0.45, y+0.05, -x+0.4'
   '-z+3/4, -y+0.15, x+0.6'
   'z+0.55, -y+0.1, x+0.65'
   '-z+0.65, y+0.1, -x+0.55'
   '-z+0.6, y+0.15, x+3/4'
   'z+0.4, -y+0.05, -x+0.45'
   '-z+0.7, -y, -x+1/2'
   'z+1/2, y, x+0.7'
   'x+0.7, y+0.1, z+0.4'
   '-x+1/2, -y+0.1, -z+0.6'
   '-x+0.45, -y+0.15, z+1/2'
   'x+3/4, y+0.05, -z+0.7'
   '-x+0.55, y, -z+3/4'
   'x+0.65, -y, z+0.45'
   'x+0.6, -y+0.05, -z+0.65'
   '-x+0.4, y+0.15, z+0.55'
   'z+1/2, x+0.7, y'
   '-z+0.7, -x+1/2, -y'
   'z+0.4, -x+0.45, -y+0.05'
   '-z+0.6, x+3/4, y+0.15'
   '-z+0.65, -x+0.55, y+0.1'
   'z+0.55, x+0.65, -y+0.1'
   '-z+3/4, x+0.6, -y+0.15'
   'z+0.45, -x+0.4, y+0.05'
   'y+0.1, z+1/2, x+0.6'
   '-y+0.1, -z+0.7, -x+0.4'
   '-y+0.15, z+0.4, -x+0.55'
   'y+0.05, -z+0.6, x+0.65'
   'y, -z+0.65, -x+0.45'
   '-y, z+0.55, x+3/4'
   '-y+0.05, -z+3/4, x+0.7'
   'y+0.15, z+0.45, -x+1/2'
   'y+0.05, x+3/4, -z+0.7'
   '-y+0.15, -x+0.45, z+1/2'
   '-y+0.1, -x+1/2, -z+0.6'
   'y+0.1, x+0.7, z+0.4'
   'y+0.15, -x+0.4, z+0.55'
   '-y+0.05, x+0.6, -z+0.65'
   '-y, x+0.65, z+0.45'
   'y, -x+0.55, -z+3/4'
   'x+0.65, z+0.55, -y+0.1'
   '-x+0.55, -z+0.65, y+0.1'
   '-x+0.4, z+0.45, y+0.05'
   'x+0.6, -z+3/4, -y+0.15'
   '-x+1/2, -z+0.7, -y'
   'x+0.7, z+1/2, y'
   'x+3/4, -z+0.6, y+0.15'
   '-x+0.45, z+0.4, -y+0.05'
   'z+0.45, y+0.15, -x+1/2'
   '-z+3/4, -y+0.05, x+0.7'
   'z+0.55, -y, x+3/4'
   '-z+0.65, y, -x+0.45'
   '-z+0.6, y+0.05, x+0.65'
   'z+0.4, -y+0.15, -x+0.55'
   '-z+0.7, -y+0.1, -x+0.4'
   'z+1/2, y+0.1, x+0.6'
   'x+0.6, y, z+0.6'
   '-x+0.4, -y, -z+0.4'
   '-x+0.55, -y+0.05, z+0.7'
   'x+0.65, y+0.15, -z+1/2'
   '-x+0.45, y+0.1, -z+0.55'
   'x+3/4, -y+0.1, z+0.65'
   'x+0.7, -y+0.15, -z+0.45'
   '-x+1/2, y+0.05, z+3/4'
   'z+0.6, x+0.6, y'
   '-z+0.4, -x+0.4, -y'
   'z+0.7, -x+0.55, -y+0.05'
   '-z+1/2, x+0.65, y+0.15'
   '-z+0.55, -x+0.45, y+0.1'
   'z+0.65, x+3/4, -y+0.1'
   '-z+0.45, x+0.7, -y+0.15'
   'z+3/4, -x+1/2, y+0.05'
   'y, z+0.6, x+0.6'
   '-y, -z+0.4, -x+0.4'
   '-y+0.05, z+0.7, -x+0.55'
   'y+0.15, -z+1/2, x+0.65'
   'y+0.1, -z+0.55, -x+0.45'
   '-y+0.1, z+0.65, x+3/4'
   '-y+0.15, -z+0.45, x+0.7'
   'y+0.05, z+3/4, -x+1/2'
   'y+0.15, x+0.65, -z+1/2'
   '-y+0.05, -x+0.55, z+0.7'
   '-y, -x+0.4, -z+0.4'
   'y, x+0.6, z+0.6'
   'y+0.05, -x+1/2, z+3/4'
   '-y+0.15, x+0.7, -z+0.45'
   '-y+0.1, x+3/4, z+0.65'
   'y+0.1, -x+0.45, -z+0.55'
   'x+3/4, z+0.65, -y+0.1'
   '-x+0.45, -z+0.55, y+0.1'
   '-x+1/2, z+3/4, y+0.05'
   'x+0.7, -z+0.45, -y+0.15'
   '-x+0.4, -z+0.4, -y'
   'x+0.6, z+0.6, y'
   'x+0.65, -z+1/2, y+0.15'
   '-x+0.55, z+0.7, -y+0.05'
   'z+3/4, y+0.05, -x+1/2'
   '-z+0.45, -y+0.15, x+0.7'
   'z+0.65, -y+0.1, x+3/4'
   '-z+0.55, y+0.1, -x+0.45'
   '-z+1/2, y+0.15, x+0.65'
   'z+0.7, -y+0.05, -x+0.55'
   '-z+0.4, -y, -x+0.4'
   'z+0.6, y, x+0.6'
   'x+0.6, y+0.1, z+0.7'
   '-x+0.4, -y+0.1, -z+1/2'
   '-x+0.55, -y+0.15, z+0.6'
   'x+0.65, y+0.05, -z+0.4'
   '-x+0.45, y, -z+0.45'
   'x+3/4, -y, z+3/4'
   'x+0.7, -y+0.05, -z+0.55'
   '-x+1/2, y+0.15, z+0.65'
   'z+0.6, x+0.7, y+0.1'
   '-z+0.4, -x+1/2, -y+0.1'
   'z+0.7, -x+0.45, -y+0.15'
   '-z+1/2, x+3/4, y+0.05'
   '-z+0.55, -x+0.55, y'
   'z+0.65, x+0.65, -y'
   '-z+0.45, x+0.6, -y+0.05'
   'z+3/4, -x+0.4, y+0.15'
   'y, z+0.7, x+0.7'
   '-y, -z+1/2, -x+1/2'
   '-y+0.05, z+0.6, -x+0.45'
   'y+0.15, -z+0.4, x+3/4'
   'y+0.1, -z+0.45, -x+0.55'
   '-y+0.1, z+3/4, x+0.65'
   '-y+0.15, -z+0.55, x+0.6'
   'y+0.05, z+0.65, -x+0.4'
   'y+0.15, x+3/4, -z+0.4'
   '-y+0.05, -x+0.45, z+0.6'
   '-y, -x+1/2, -z+1/2'
   'y, x+0.7, z+0.7'
   'y+0.05, -x+0.4, z+0.65'
   '-y+0.15, x+0.6, -z+0.55'
   '-y+0.1, x+0.65, z+3/4'
   'y+0.1, -x+0.55, -z+0.45'
   'x+3/4, z+3/4, -y'
   '-x+0.45, -z+0.45, y'
   '-x+1/2, z+0.65, y+0.15'
   'x+0.7, -z+0.55, -y+0.05'
   '-x+0.4, -z+1/2, -y+0.1'
   'x+0.6, z+0.7, y+0.1'
   'x+0.65, -z+0.4, y+0.05'
   '-x+0.55, z+0.6, -y+0.15'
   'z+3/4, y+0.15, -x+0.4'
   '-z+0.45, -y+0.05, x+0.6'
   'z+0.65, -y, x+0.65'
   '-z+0.55, y, -x+0.55'
   '-z+1/2, y+0.05, x+3/4'
   'z+0.7, -y+0.15, -x+0.45'
   '-z+0.4, -y+0.1, -x+1/2'
   'z+0.6, y+0.1, x+0.7'
   'x+0.7, y, z+0.7'
   '-x+1/2, -y, -z+1/2'
   '-x+0.45, -y+0.05, z+0.6'
   'x+3/4, y+0.15, -z+0.4'
   '-x+0.55, y+0.1, -z+0.45'
   'x+0.65, -y+0.1, z+3/4'
   'x+0.6, -y+0.15, -z+0.55'
   '-x+0.4, y+0.05, z+0.65'
   'z+0.7, x+0.6, y+0.1'
   '-z+1/2, -x+0.4, -y+0.1'
   'z+0.6, -x+0.55, -y+0.15'
   '-z+0.4, x+0.65, y+0.05'
   '-z+0.45, -x+0.45, y'
   'z+3/4, x+3/4, -y'
   '-z+0.55, x+0.7, -y+0.05'
   'z+0.65, -x+1/2, y+0.15'
   'y+0.1, z+0.6, x+0.7'
   '-y+0.1, -z+0.4, -x+1/2'
   '-y+0.15, z+0.7, -x+0.45'
   'y+0.05, -z+1/2, x+3/4'
   'y, -z+0.55, -x+0.55'
   '-y, z+0.65, x+0.65'
   '-y+0.05, -z+0.45, x+0.6'
   'y+0.15, z+3/4, -x+0.4'
   'y+0.05, x+0.65, -z+0.4'
   '-y+0.15, -x+0.55, z+0.6'
   '-y+0.1, -x+0.4, -z+1/2'
   'y+0.1, x+0.6, z+0.7'
   'y+0.15, -x+1/2, z+0.65'
   '-y+0.05, x+0.7, -z+0.55'
   '-y, x+3/4, z+3/4'
   'y, -x+0.45, -z+0.45'
   'x+0.65, z+0.65, -y'
   '-x+0.55, -z+0.55, y'
   '-x+0.4, z+3/4, y+0.15'
   'x+0.6, -z+0.45, -y+0.05'
   '-x+1/2, -z+0.4, -y+0.1'
   'x+0.7, z+0.6, y+0.1'
   'x+3/4, -z+1/2, y+0.05'
   '-x+0.45, z+0.7, -y+0.15'
   'z+0.65, y+0.05, -x+0.4'
   '-z+0.55, -y+0.15, x+0.6'
   'z+3/4, -y+0.1, x+0.65'
   '-z+0.45, y+0.1, -x+0.55'
   '-z+0.4, y+0.15, x+3/4'
   'z+0.6, -y+0.05, -x+0.45'
   '-z+1/2, -y, -x+1/2'
   'z+0.7, y, x+0.7'
   'x+0.7, y+0.1, z+0.6'
   '-x+1/2, -y+0.1, -z+0.4'
   '-x+0.45, -y+0.15, z+0.7'
   'x+3/4, y+0.05, -z+1/2'
   '-x+0.55, y, -z+0.55'
   'x+0.65, -y, z+0.65'
   'x+0.6, -y+0.05, -z+0.45'
   '-x+0.4, y+0.15, z+3/4'
   'z+0.7, x+0.7, y'
   '-z+1/2, -x+1/2, -y'
   'z+0.6, -x+0.45, -y+0.05'
   '-z+0.4, x+3/4, y+0.15'
   '-z+0.45, -x+0.55, y+0.1'
   'z+3/4, x+0.65, -y+0.1'
   '-z+0.55, x+0.6, -y+0.15'
   'z+0.65, -x+0.4, y+0.05'
   'y+0.1, z+0.7, x+0.6'
   '-y+0.1, -z+1/2, -x+0.4'
   '-y+0.15, z+0.6, -x+0.55'
   'y+0.05, -z+0.4, x+0.65'
   'y, -z+0.45, -x+0.45'
   '-y, z+3/4, x+3/4'
   '-y+0.05, -z+0.55, x+0.7'
   'y+0.15, z+0.65, -x+1/2'
   'y+0.05, x+3/4, -z+1/2'
   '-y+0.15, -x+0.45, z+0.7'
   '-y+0.1, -x+1/2, -z+0.4'
   'y+0.1, x+0.7, z+0.6'
   'y+0.15, -x+0.4, z+3/4'
   '-y+0.05, x+0.6, -z+0.45'
   '-y, x+0.65, z+0.65'
   'y, -x+0.55, -z+0.55'
   'x+0.65, z+3/4, -y+0.1'
   '-x+0.55, -z+0.45, y+0.1'
   '-x+0.4, z+0.65, y+0.05'
   'x+0.6, -z+0.55, -y+0.15'
   '-x+1/2, -z+1/2, -y'
   'x+0.7, z+0.7, y'
   'x+3/4, -z+0.4, y+0.15'
   '-x+0.45, z+0.6, -y+0.05'
   'z+0.65, y+0.15, -x+1/2'
   '-z+0.55, -y+0.05, x+0.7'
   'z+3/4, -y, x+3/4'
   '-z+0.45, y, -x+0.45'
   '-z+0.4, y+0.05, x+0.65'
   'z+0.6, -y+0.15, -x+0.55'
   '-z+1/2, -y+0.1, -x+0.4'
   'z+0.7, y+0.1, x+0.6'
   'x+0.6, y, z+0.8'
   '-x+0.4, -y, -z+0.2'
   '-x+0.55, -y+0.05, z+0.9'
   'x+0.65, y+0.15, -z+0.3'
   '-x+0.45, y+0.1, -z+0.35'
   'x+3/4, -y+0.1, z+0.85'
   'x+0.7, -y+0.15, -z+1/4'
   '-x+1/2, y+0.05, z+0.95'
   'z+0.8, x+0.6, y'
   '-z+0.2, -x+0.4, -y'
   'z+0.9, -x+0.55, -y+0.05'
   '-z+0.3, x+0.65, y+0.15'
   '-z+0.35, -x+0.45, y+0.1'
   'z+0.85, x+3/4, -y+0.1'
   '-z+1/4, x+0.7, -y+0.15'
   'z+0.95, -x+1/2, y+0.05'
   'y, z+0.8, x+0.6'
   '-y, -z+0.2, -x+0.4'
   '-y+0.05, z+0.9, -x+0.55'
   'y+0.15, -z+0.3, x+0.65'
   'y+0.1, -z+0.35, -x+0.45'
   '-y+0.1, z+0.85, x+3/4'
   '-y+0.15, -z+1/4, x+0.7'
   'y+0.05, z+0.95, -x+1/2'
   'y+0.15, x+0.65, -z+0.3'
   '-y+0.05, -x+0.55, z+0.9'
   '-y, -x+0.4, -z+0.2'
   'y, x+0.6, z+0.8'
   'y+0.05, -x+1/2, z+0.95'
   '-y+0.15, x+0.7, -z+1/4'
   '-y+0.1, x+3/4, z+0.85'
   'y+0.1, -x+0.45, -z+0.35'
   'x+3/4, z+0.85, -y+0.1'
   '-x+0.45, -z+0.35, y+0.1'
   '-x+1/2, z+0.95, y+0.05'
   'x+0.7, -z+1/4, -y+0.15'
   '-x+0.4, -z+0.2, -y'
   'x+0.6, z+0.8, y'
   'x+0.65, -z+0.3, y+0.15'
   '-x+0.55, z+0.9, -y+0.05'
   'z+0.95, y+0.05, -x+1/2'
   '-z+1/4, -y+0.15, x+0.7'
   'z+0.85, -y+0.1, x+3/4'
   '-z+0.35, y+0.1, -x+0.45'
   '-z+0.3, y+0.15, x+0.65'
   'z+0.9, -y+0.05, -x+0.55'
   '-z+0.2, -y, -x+0.4'
   'z+0.8, y, x+0.6'
   'x+0.6, y+0.1, z+0.9'
   '-x+0.4, -y+0.1, -z+0.3'
   '-x+0.55, -y+0.15, z+0.8'
   'x+0.65, y+0.05, -z+0.2'
   '-x+0.45, y, -z+1/4'
   'x+3/4, -y, z+0.95'
   'x+0.7, -y+0.05, -z+0.35'
   '-x+1/2, y+0.15, z+0.85'
   'z+0.8, x+0.7, y+0.1'
   '-z+0.2, -x+1/2, -y+0.1'
   'z+0.9, -x+0.45, -y+0.15'
   '-z+0.3, x+3/4, y+0.05'
   '-z+0.35, -x+0.55, y'
   'z+0.85, x+0.65, -y'
   '-z+1/4, x+0.6, -y+0.05'
   'z+0.95, -x+0.4, y+0.15'
   'y, z+0.9, x+0.7'
   '-y, -z+0.3, -x+1/2'
   '-y+0.05, z+0.8, -x+0.45'
   'y+0.15, -z+0.2, x+3/4'
   'y+0.1, -z+1/4, -x+0.55'
   '-y+0.1, z+0.95, x+0.65'
   '-y+0.15, -z+0.35, x+0.6'
   'y+0.05, z+0.85, -x+0.4'
   'y+0.15, x+3/4, -z+0.2'
   '-y+0.05, -x+0.45, z+0.8'
   '-y, -x+1/2, -z+0.3'
   'y, x+0.7, z+0.9'
   'y+0.05, -x+0.4, z+0.85'
   '-y+0.15, x+0.6, -z+0.35'
   '-y+0.1, x+0.65, z+0.95'
   'y+0.1, -x+0.55, -z+1/4'
   'x+3/4, z+0.95, -y'
   '-x+0.45, -z+1/4, y'
   '-x+1/2, z+0.85, y+0.15'
   'x+0.7, -z+0.35, -y+0.05'
   '-x+0.4, -z+0.3, -y+0.1'
   'x+0.6, z+0.9, y+0.1'
   'x+0.65, -z+0.2, y+0.05'
   '-x+0.55, z+0.8, -y+0.15'
   'z+0.95, y+0.15, -x+0.4'
   '-z+1/4, -y+0.05, x+0.6'
   'z+0.85, -y, x+0.65'
   '-z+0.35, y, -x+0.55'
   '-z+0.3, y+0.05, x+3/4'
   'z+0.9, -y+0.15, -x+0.45'
   '-z+0.2, -y+0.1, -x+1/2'
   'z+0.8, y+0.1, x+0.7'
   'x+0.7, y, z+0.9'
   '-x+1/2, -y, -z+0.3'
   '-x+0.45, -y+0.05, z+0.8'
   'x+3/4, y+0.15, -z+0.2'
   '-x+0.55, y+0.1, -z+1/4'
   'x+0.65, -y+0.1, z+0.95'
   'x+0.6, -y+0.15, -z+0.35'
   '-x+0.4, y+0.05, z+0.85'
   'z+0.9, x+0.6, y+0.1'
   '-z+0.3, -x+0.4, -y+0.1'
   'z+0.8, -x+0.55, -y+0.15'
   '-z+0.2, x+0.65, y+0.05'
   '-z+1/4, -x+0.45, y'
   'z+0.95, x+3/4, -y'
   '-z+0.35, x+0.7, -y+0.05'
   'z+0.85, -x+1/2, y+0.15'
   'y+0.1, z+0.8, x+0.7'
   '-y+0.1, -z+0.2, -x+1/2'
   '-y+0.15, z+0.9, -x+0.45'
   'y+0.05, -z+0.3, x+3/4'
   'y, -z+0.35, -x+0.55'
   '-y, z+0.85, x+0.65'
   '-y+0.05, -z+1/4, x+0.6'
   'y+0.15, z+0.95, -x+0.4'
   'y+0.05, x+0.65, -z+0.2'
   '-y+0.15, -x+0.55, z+0.8'
   '-y+0.1, -x+0.4, -z+0.3'
   'y+0.1, x+0.6, z+0.9'
   'y+0.15, -x+1/2, z+0.85'
   '-y+0.05, x+0.7, -z+0.35'
   '-y, x+3/4, z+0.95'
   'y, -x+0.45, -z+1/4'
   'x+0.65, z+0.85, -y'
   '-x+0.55, -z+0.35, y'
   '-x+0.4, z+0.95, y+0.15'
   'x+0.6, -z+1/4, -y+0.05'
   '-x+1/2, -z+0.2, -y+0.1'
   'x+0.7, z+0.8, y+0.1'
   'x+3/4, -z+0.3, y+0.05'
   '-x+0.45, z+0.9, -y+0.15'
   'z+0.85, y+0.05, -x+0.4'
   '-z+0.35, -y+0.15, x+0.6'
   'z+0.95, -y+0.1, x+0.65'
   '-z+1/4, y+0.1, -x+0.55'
   '-z+0.2, y+0.15, x+3/4'
   'z+0.8, -y+0.05, -x+0.45'
   '-z+0.3, -y, -x+1/2'
   'z+0.9, y, x+0.7'
   'x+0.7, y+0.1, z+0.8'
   '-x+1/2, -y+0.1, -z+0.2'
   '-x+0.45, -y+0.15, z+0.9'
   'x+3/4, y+0.05, -z+0.3'
   '-x+0.55, y, -z+0.35'
   'x+0.65, -y, z+0.85'
   'x+0.6, -y+0.05, -z+1/4'
   '-x+0.4, y+0.15, z+0.95'
   'z+0.9, x+0.7, y'
   '-z+0.3, -x+1/2, -y'
   'z+0.8, -x+0.45, -y+0.05'
   '-z+0.2, x+3/4, y+0.15'
   '-z+1/4, -x+0.55, y+0.1'
   'z+0.95, x+0.65, -y+0.1'
   '-z+0.35, x+0.6, -y+0.15'
   'z+0.85, -x+0.4, y+0.05'
   'y+0.1, z+0.9, x+0.6'
   '-y+0.1, -z+0.3, -x+0.4'
   '-y+0.15, z+0.8, -x+0.55'
   'y+0.05, -z+0.2, x+0.65'
   'y, -z+1/4, -x+0.45'
   '-y, z+0.95, x+3/4'
   '-y+0.05, -z+0.35, x+0.7'
   'y+0.15, z+0.85, -x+1/2'
   'y+0.05, x+3/4, -z+0.3'
   '-y+0.15, -x+0.45, z+0.9'
   '-y+0.1, -x+1/2, -z+0.2'
   'y+0.1, x+0.7, z+0.8'
   'y+0.15, -x+0.4, z+0.95'
   '-y+0.05, x+0.6, -z+1/4'
   '-y, x+0.65, z+0.85'
   'y, -x+0.55, -z+0.35'
   'x+0.65, z+0.95, -y+0.1'
   '-x+0.55, -z+1/4, y+0.1'
   '-x+0.4, z+0.85, y+0.05'
   'x+0.6, -z+0.35, -y+0.15'
   '-x+1/2, -z+0.3, -y'
   'x+0.7, z+0.9, y'
   'x+3/4, -z+0.2, y+0.15'
   '-x+0.45, z+0.8, -y+0.05'
   'z+0.85, y+0.15, -x+1/2'
   '-z+0.35, -y+0.05, x+0.7'
   'z+0.95, -y, x+3/4'
   '-z+1/4, y, -x+0.45'
   '-z+0.2, y+0.05, x+0.65'
   'z+0.8, -y+0.15, -x+0.55'
   '-z+0.3, -y+0.1, -x+0.4'
   'z+0.9, y+0.1, x+0.6'
   'x+0.6, y+0.2, z'
   '-x+0.4, -y+0.8, -z'
   '-x+0.55, -y+0.85, z+0.1'
   'x+0.65, y+0.35, -z+0.1'
   '-x+0.45, y+0.3, -z+0.15'
   'x+3/4, -y+0.9, z+0.05'
   'x+0.7, -y+0.95, -z+0.05'
   '-x+1/2, y+1/4, z+0.15'
   'z, x+0.6, y+0.2'
   '-z, -x+0.4, -y+0.8'
   'z+0.1, -x+0.55, -y+0.85'
   '-z+0.1, x+0.65, y+0.35'
   '-z+0.15, -x+0.45, y+0.3'
   'z+0.05, x+3/4, -y+0.9'
   '-z+0.05, x+0.7, -y+0.95'
   'z+0.15, -x+1/2, y+1/4'
   'y+0.2, z, x+0.6'
   '-y+0.8, -z, -x+0.4'
   '-y+0.85, z+0.1, -x+0.55'
   'y+0.35, -z+0.1, x+0.65'
   'y+0.3, -z+0.15, -x+0.45'
   '-y+0.9, z+0.05, x+3/4'
   '-y+0.95, -z+0.05, x+0.7'
   'y+1/4, z+0.15, -x+1/2'
   'y+0.35, x+0.65, -z+0.1'
   '-y+0.85, -x+0.55, z+0.1'
   '-y+0.8, -x+0.4, -z'
   'y+0.2, x+0.6, z'
   'y+1/4, -x+1/2, z+0.15'
   '-y+0.95, x+0.7, -z+0.05'
   '-y+0.9, x+3/4, z+0.05'
   'y+0.3, -x+0.45, -z+0.15'
   'x+3/4, z+0.05, -y+0.9'
   '-x+0.45, -z+0.15, y+0.3'
   '-x+1/2, z+0.15, y+1/4'
   'x+0.7, -z+0.05, -y+0.95'
   '-x+0.4, -z, -y+0.8'
   'x+0.6, z, y+0.2'
   'x+0.65, -z+0.1, y+0.35'
   '-x+0.55, z+0.1, -y+0.85'
   'z+0.15, y+1/4, -x+1/2'
   '-z+0.05, -y+0.95, x+0.7'
   'z+0.05, -y+0.9, x+3/4'
   '-z+0.15, y+0.3, -x+0.45'
   '-z+0.1, y+0.35, x+0.65'
   'z+0.1, -y+0.85, -x+0.55'
   '-z, -y+0.8, -x+0.4'
   'z, y+0.2, x+0.6'
   'x+0.6, y+0.3, z+0.1'
   '-x+0.4, -y+0.9, -z+0.1'
   '-x+0.55, -y+0.95, z'
   'x+0.65, y+1/4, -z'
   '-x+0.45, y+0.2, -z+0.05'
   'x+3/4, -y+0.8, z+0.15'
   'x+0.7, -y+0.85, -z+0.15'
   '-x+1/2, y+0.35, z+0.05'
   'z, x+0.7, y+0.3'
   '-z, -x+1/2, -y+0.9'
   'z+0.1, -x+0.45, -y+0.95'
   '-z+0.1, x+3/4, y+1/4'
   '-z+0.15, -x+0.55, y+0.2'
   'z+0.05, x+0.65, -y+0.8'
   '-z+0.05, x+0.6, -y+0.85'
   'z+0.15, -x+0.4, y+0.35'
   'y+0.2, z+0.1, x+0.7'
   '-y+0.8, -z+0.1, -x+1/2'
   '-y+0.85, z, -x+0.45'
   'y+0.35, -z, x+3/4'
   'y+0.3, -z+0.05, -x+0.55'
   '-y+0.9, z+0.15, x+0.65'
   '-y+0.95, -z+0.15, x+0.6'
   'y+1/4, z+0.05, -x+0.4'
   'y+0.35, x+3/4, -z'
   '-y+0.85, -x+0.45, z'
   '-y+0.8, -x+1/2, -z+0.1'
   'y+0.2, x+0.7, z+0.1'
   'y+1/4, -x+0.4, z+0.05'
   '-y+0.95, x+0.6, -z+0.15'
   '-y+0.9, x+0.65, z+0.15'
   'y+0.3, -x+0.55, -z+0.05'
   'x+3/4, z+0.15, -y+0.8'
   '-x+0.45, -z+0.05, y+0.2'
   '-x+1/2, z+0.05, y+0.35'
   'x+0.7, -z+0.15, -y+0.85'
   '-x+0.4, -z+0.1, -y+0.9'
   'x+0.6, z+0.1, y+0.3'
   'x+0.65, -z, y+1/4'
   '-x+0.55, z, -y+0.95'
   'z+0.15, y+0.35, -x+0.4'
   '-z+0.05, -y+0.85, x+0.6'
   'z+0.05, -y+0.8, x+0.65'
   '-z+0.15, y+0.2, -x+0.55'
   '-z+0.1, y+1/4, x+3/4'
   'z+0.1, -y+0.95, -x+0.45'
   '-z, -y+0.9, -x+1/2'
   'z, y+0.3, x+0.7'
   'x+0.7, y+0.2, z+0.1'
   '-x+1/2, -y+0.8, -z+0.1'
   '-x+0.45, -y+0.85, z'
   'x+3/4, y+0.35, -z'
   '-x+0.55, y+0.3, -z+0.05'
   'x+0.65, -y+0.9, z+0.15'
   'x+0.6, -y+0.95, -z+0.15'
   '-x+0.4, y+1/4, z+0.05'
   'z+0.1, x+0.6, y+0.3'
   '-z+0.1, -x+0.4, -y+0.9'
   'z, -x+0.55, -y+0.95'
   '-z, x+0.65, y+1/4'
   '-z+0.05, -x+0.45, y+0.2'
   'z+0.15, x+3/4, -y+0.8'
   '-z+0.15, x+0.7, -y+0.85'
   'z+0.05, -x+1/2, y+0.35'
   'y+0.3, z, x+0.7'
   '-y+0.9, -z, -x+1/2'
   '-y+0.95, z+0.1, -x+0.45'
   'y+1/4, -z+0.1, x+3/4'
   'y+0.2, -z+0.15, -x+0.55'
   '-y+0.8, z+0.05, x+0.65'
   '-y+0.85, -z+0.05, x+0.6'
   'y+0.35, z+0.15, -x+0.4'
   'y+1/4, x+0.65, -z'
   '-y+0.95, -x+0.55, z'
   '-y+0.9, -x+0.4, -z+0.1'
   'y+0.3, x+0.6, z+0.1'
   'y+0.35, -x+1/2, z+0.05'
   '-y+0.85, x+0.7, -z+0.15'
   '-y+0.8, x+3/4, z+0.15'
   'y+0.2, -x+0.45, -z+0.05'
   'x+0.65, z+0.05, -y+0.8'
   '-x+0.55, -z+0.15, y+0.2'
   '-x+0.4, z+0.15, y+0.35'
   'x+0.6, -z+0.05, -y+0.85'
   '-x+1/2, -z, -y+0.9'
   'x+0.7, z, y+0.3'
   'x+3/4, -z+0.1, y+1/4'
   '-x+0.45, z+0.1, -y+0.95'
   'z+0.05, y+1/4, -x+0.4'
   '-z+0.15, -y+0.95, x+0.6'
   'z+0.15, -y+0.9, x+0.65'
   '-z+0.05, y+0.3, -x+0.55'
   '-z, y+0.35, x+3/4'
   'z, -y+0.85, -x+0.45'
   '-z+0.1, -y+0.8, -x+1/2'
   'z+0.1, y+0.2, x+0.7'
   'x+0.7, y+0.3, z'
   '-x+1/2, -y+0.9, -z'
   '-x+0.45, -y+0.95, z+0.1'
   'x+3/4, y+1/4, -z+0.1'
   '-x+0.55, y+0.2, -z+0.15'
   'x+0.65, -y+0.8, z+0.05'
   'x+0.6, -y+0.85, -z+0.05'
   '-x+0.4, y+0.35, z+0.15'
   'z+0.1, x+0.7, y+0.2'
   '-z+0.1, -x+1/2, -y+0.8'
   'z, -x+0.45, -y+0.85'
   '-z, x+3/4, y+0.35'
   '-z+0.05, -x+0.55, y+0.3'
   'z+0.15, x+0.65, -y+0.9'
   '-z+0.15, x+0.6, -y+0.95'
   'z+0.05, -x+0.4, y+1/4'
   'y+0.3, z+0.1, x+0.6'
   '-y+0.9, -z+0.1, -x+0.4'
   '-y+0.95, z, -x+0.55'
   'y+1/4, -z, x+0.65'
   'y+0.2, -z+0.05, -x+0.45'
   '-y+0.8, z+0.15, x+3/4'
   '-y+0.85, -z+0.15, x+0.7'
   'y+0.35, z+0.05, -x+1/2'
   'y+1/4, x+3/4, -z+0.1'
   '-y+0.95, -x+0.45, z+0.1'
   '-y+0.9, -x+1/2, -z'
   'y+0.3, x+0.7, z'
   'y+0.35, -x+0.4, z+0.15'
   '-y+0.85, x+0.6, -z+0.05'
   '-y+0.8, x+0.65, z+0.05'
   'y+0.2, -x+0.55, -z+0.15'
   'x+0.65, z+0.15, -y+0.9'
   '-x+0.55, -z+0.05, y+0.3'
   '-x+0.4, z+0.05, y+1/4'
   'x+0.6, -z+0.15, -y+0.95'
   '-x+1/2, -z+0.1, -y+0.8'
   'x+0.7, z+0.1, y+0.2'
   'x+3/4, -z, y+0.35'
   '-x+0.45, z, -y+0.85'
   'z+0.05, y+0.35, -x+1/2'
   '-z+0.15, -y+0.85, x+0.7'
   'z+0.15, -y+0.8, x+3/4'
   '-z+0.05, y+0.2, -x+0.45'
   '-z, y+1/4, x+0.65'
   'z, -y+0.95, -x+0.55'
   '-z+0.1, -y+0.9, -x+0.4'
   'z+0.1, y+0.3, x+0.6'
   'x+0.6, y+0.2, z+0.2'
   '-x+0.4, -y+0.8, -z+0.8'
   '-x+0.55, -y+0.85, z+0.3'
   'x+0.65, y+0.35, -z+0.9'
   '-x+0.45, y+0.3, -z+0.95'
   'x+3/4, -y+0.9, z+1/4'
   'x+0.7, -y+0.95, -z+0.85'
   '-x+1/2, y+1/4, z+0.35'
   'z+0.2, x+0.6, y+0.2'
   '-z+0.8, -x+0.4, -y+0.8'
   'z+0.3, -x+0.55, -y+0.85'
   '-z+0.9, x+0.65, y+0.35'
   '-z+0.95, -x+0.45, y+0.3'
   'z+1/4, x+3/4, -y+0.9'
   '-z+0.85, x+0.7, -y+0.95'
   'z+0.35, -x+1/2, y+1/4'
   'y+0.2, z+0.2, x+0.6'
   '-y+0.8, -z+0.8, -x+0.4'
   '-y+0.85, z+0.3, -x+0.55'
   'y+0.35, -z+0.9, x+0.65'
   'y+0.3, -z+0.95, -x+0.45'
   '-y+0.9, z+1/4, x+3/4'
   '-y+0.95, -z+0.85, x+0.7'
   'y+1/4, z+0.35, -x+1/2'
   'y+0.35, x+0.65, -z+0.9'
   '-y+0.85, -x+0.55, z+0.3'
   '-y+0.8, -x+0.4, -z+0.8'
   'y+0.2, x+0.6, z+0.2'
   'y+1/4, -x+1/2, z+0.35'
   '-y+0.95, x+0.7, -z+0.85'
   '-y+0.9, x+3/4, z+1/4'
   'y+0.3, -x+0.45, -z+0.95'
   'x+3/4, z+1/4, -y+0.9'
   '-x+0.45, -z+0.95, y+0.3'
   '-x+1/2, z+0.35, y+1/4'
   'x+0.7, -z+0.85, -y+0.95'
   '-x+0.4, -z+0.8, -y+0.8'
   'x+0.6, z+0.2, y+0.2'
   'x+0.65, -z+0.9, y+0.35'
   '-x+0.55, z+0.3, -y+0.85'
   'z+0.35, y+1/4, -x+1/2'
   '-z+0.85, -y+0.95, x+0.7'
   'z+1/4, -y+0.9, x+3/4'
   '-z+0.95, y+0.3, -x+0.45'
   '-z+0.9, y+0.35, x+0.65'
   'z+0.3, -y+0.85, -x+0.55'
   '-z+0.8, -y+0.8, -x+0.4'
   'z+0.2, y+0.2, x+0.6'
   'x+0.6, y+0.3, z+0.3'
   '-x+0.4, -y+0.9, -z+0.9'
   '-x+0.55, -y+0.95, z+0.2'
   'x+0.65, y+1/4, -z+0.8'
   '-x+0.45, y+0.2, -z+0.85'
   'x+3/4, -y+0.8, z+0.35'
   'x+0.7, -y+0.85, -z+0.95'
   '-x+1/2, y+0.35, z+1/4'
   'z+0.2, x+0.7, y+0.3'
   '-z+0.8, -x+1/2, -y+0.9'
   'z+0.3, -x+0.45, -y+0.95'
   '-z+0.9, x+3/4, y+1/4'
   '-z+0.95, -x+0.55, y+0.2'
   'z+1/4, x+0.65, -y+0.8'
   '-z+0.85, x+0.6, -y+0.85'
   'z+0.35, -x+0.4, y+0.35'
   'y+0.2, z+0.3, x+0.7'
   '-y+0.8, -z+0.9, -x+1/2'
   '-y+0.85, z+0.2, -x+0.45'
   'y+0.35, -z+0.8, x+3/4'
   'y+0.3, -z+0.85, -x+0.55'
   '-y+0.9, z+0.35, x+0.65'
   '-y+0.95, -z+0.95, x+0.6'
   'y+1/4, z+1/4, -x+0.4'
   'y+0.35, x+3/4, -z+0.8'
   '-y+0.85, -x+0.45, z+0.2'
   '-y+0.8, -x+1/2, -z+0.9'
   'y+0.2, x+0.7, z+0.3'
   'y+1/4, -x+0.4, z+1/4'
   '-y+0.95, x+0.6, -z+0.95'
   '-y+0.9, x+0.65, z+0.35'
   'y+0.3, -x+0.55, -z+0.85'
   'x+3/4, z+0.35, -y+0.8'
   '-x+0.45, -z+0.85, y+0.2'
   '-x+1/2, z+1/4, y+0.35'
   'x+0.7, -z+0.95, -y+0.85'
   '-x+0.4, -z+0.9, -y+0.9'
   'x+0.6, z+0.3, y+0.3'
   'x+0.65, -z+0.8, y+1/4'
   '-x+0.55, z+0.2, -y+0.95'
   'z+0.35, y+0.35, -x+0.4'
   '-z+0.85, -y+0.85, x+0.6'
   'z+1/4, -y+0.8, x+0.65'
   '-z+0.95, y+0.2, -x+0.55'
   '-z+0.9, y+1/4, x+3/4'
   'z+0.3, -y+0.95, -x+0.45'
   '-z+0.8, -y+0.9, -x+1/2'
   'z+0.2, y+0.3, x+0.7'
   'x+0.7, y+0.2, z+0.3'
   '-x+1/2, -y+0.8, -z+0.9'
   '-x+0.45, -y+0.85, z+0.2'
   'x+3/4, y+0.35, -z+0.8'
   '-x+0.55, y+0.3, -z+0.85'
   'x+0.65, -y+0.9, z+0.35'
   'x+0.6, -y+0.95, -z+0.95'
   '-x+0.4, y+1/4, z+1/4'
   'z+0.3, x+0.6, y+0.3'
   '-z+0.9, -x+0.4, -y+0.9'
   'z+0.2, -x+0.55, -y+0.95'
   '-z+0.8, x+0.65, y+1/4'
   '-z+0.85, -x+0.45, y+0.2'
   'z+0.35, x+3/4, -y+0.8'
   '-z+0.95, x+0.7, -y+0.85'
   'z+1/4, -x+1/2, y+0.35'
   'y+0.3, z+0.2, x+0.7'
   '-y+0.9, -z+0.8, -x+1/2'
   '-y+0.95, z+0.3, -x+0.45'
   'y+1/4, -z+0.9, x+3/4'
   'y+0.2, -z+0.95, -x+0.55'
   '-y+0.8, z+1/4, x+0.65'
   '-y+0.85, -z+0.85, x+0.6'
   'y+0.35, z+0.35, -x+0.4'
   'y+1/4, x+0.65, -z+0.8'
   '-y+0.95, -x+0.55, z+0.2'
   '-y+0.9, -x+0.4, -z+0.9'
   'y+0.3, x+0.6, z+0.3'
   'y+0.35, -x+1/2, z+1/4'
   '-y+0.85, x+0.7, -z+0.95'
   '-y+0.8, x+3/4, z+0.35'
   'y+0.2, -x+0.45, -z+0.85'
   'x+0.65, z+1/4, -y+0.8'
   '-x+0.55, -z+0.95, y+0.2'
   '-x+0.4, z+0.35, y+0.35'
   'x+0.6, -z+0.85, -y+0.85'
   '-x+1/2, -z+0.8, -y+0.9'
   'x+0.7, z+0.2, y+0.3'
   'x+3/4, -z+0.9, y+1/4'
   '-x+0.45, z+0.3, -y+0.95'
   'z+1/4, y+1/4, -x+0.4'
   '-z+0.95, -y+0.95, x+0.6'
   'z+0.35, -y+0.9, x+0.65'
   '-z+0.85, y+0.3, -x+0.55'
   '-z+0.8, y+0.35, x+3/4'
   'z+0.2, -y+0.85, -x+0.45'
   '-z+0.9, -y+0.8, -x+1/2'
   'z+0.3, y+0.2, x+0.7'
   'x+0.7, y+0.3, z+0.2'
   '-x+1/2, -y+0.9, -z+0.8'
   '-x+0.45, -y+0.95, z+0.3'
   'x+3/4, y+1/4, -z+0.9'
   '-x+0.55, y+0.2, -z+0.95'
   'x+0.65, -y+0.8, z+1/4'
   'x+0.6, -y+0.85, -z+0.85'
   '-x+0.4, y+0.35, z+0.35'
   'z+0.3, x+0.7, y+0.2'
   '-z+0.9, -x+1/2, -y+0.8'
   'z+0.2, -x+0.45, -y+0.85'
   '-z+0.8, x+3/4, y+0.35'
   '-z+0.85, -x+0.55, y+0.3'
   'z+0.35, x+0.65, -y+0.9'
   '-z+0.95, x+0.6, -y+0.95'
   'z+1/4, -x+0.4, y+1/4'
   'y+0.3, z+0.3, x+0.6'
   '-y+0.9, -z+0.9, -x+0.4'
   '-y+0.95, z+0.2, -x+0.55'
   'y+1/4, -z+0.8, x+0.65'
   'y+0.2, -z+0.85, -x+0.45'
   '-y+0.8, z+0.35, x+3/4'
   '-y+0.85, -z+0.95, x+0.7'
   'y+0.35, z+1/4, -x+1/2'
   'y+1/4, x+3/4, -z+0.9'
   '-y+0.95, -x+0.45, z+0.3'
   '-y+0.9, -x+1/2, -z+0.8'
   'y+0.3, x+0.7, z+0.2'
   'y+0.35, -x+0.4, z+0.35'
   '-y+0.85, x+0.6, -z+0.85'
   '-y+0.8, x+0.65, z+1/4'
   'y+0.2, -x+0.55, -z+0.95'
   'x+0.65, z+0.35, -y+0.9'
   '-x+0.55, -z+0.85, y+0.3'
   '-x+0.4, z+1/4, y+1/4'
   'x+0.6, -z+0.95, -y+0.95'
   '-x+1/2, -z+0.9, -y+0.8'
   'x+0.7, z+0.3, y+0.2'
   'x+3/4, -z+0.8, y+0.35'
   '-x+0.45, z+0.2, -y+0.85'
   'z+1/4, y+0.35, -x+1/2'
   '-z+0.95, -y+0.85, x+0.7'
   'z+0.35, -y+0.8, x+3/4'
   '-z+0.85, y+0.2, -x+0.45'
   '-z+0.8, y+1/4, x+0.65'
   'z+0.2, -y+0.95, -x+0.55'
   '-z+0.9, -y+0.9, -x+0.4'
   'z+0.3, y+0.3, x+0.6'
   'x+0.6, y+0.2, z+0.4'
   '-x+0.4, -y+0.8, -z+0.6'
   '-x+0.55, -y+0.85, z+1/2'
   'x+0.65, y+0.35, -z+0.7'
   '-x+0.45, y+0.3, -z+3/4'
   'x+3/4, -y+0.9, z+0.45'
   'x+0.7, -y+0.95, -z+0.65'
   '-x+1/2, y+1/4, z+0.55'
   'z+0.4, x+0.6, y+0.2'
   '-z+0.6, -x+0.4, -y+0.8'
   'z+1/2, -x+0.55, -y+0.85'
   '-z+0.7, x+0.65, y+0.35'
   '-z+3/4, -x+0.45, y+0.3'
   'z+0.45, x+3/4, -y+0.9'
   '-z+0.65, x+0.7, -y+0.95'
   'z+0.55, -x+1/2, y+1/4'
   'y+0.2, z+0.4, x+0.6'
   '-y+0.8, -z+0.6, -x+0.4'
   '-y+0.85, z+1/2, -x+0.55'
   'y+0.35, -z+0.7, x+0.65'
   'y+0.3, -z+3/4, -x+0.45'
   '-y+0.9, z+0.45, x+3/4'
   '-y+0.95, -z+0.65, x+0.7'
   'y+1/4, z+0.55, -x+1/2'
   'y+0.35, x+0.65, -z+0.7'
   '-y+0.85, -x+0.55, z+1/2'
   '-y+0.8, -x+0.4, -z+0.6'
   'y+0.2, x+0.6, z+0.4'
   'y+1/4, -x+1/2, z+0.55'
   '-y+0.95, x+0.7, -z+0.65'
   '-y+0.9, x+3/4, z+0.45'
   'y+0.3, -x+0.45, -z+3/4'
   'x+3/4, z+0.45, -y+0.9'
   '-x+0.45, -z+3/4, y+0.3'
   '-x+1/2, z+0.55, y+1/4'
   'x+0.7, -z+0.65, -y+0.95'
   '-x+0.4, -z+0.6, -y+0.8'
   'x+0.6, z+0.4, y+0.2'
   'x+0.65, -z+0.7, y+0.35'
   '-x+0.55, z+1/2, -y+0.85'
   'z+0.55, y+1/4, -x+1/2'
   '-z+0.65, -y+0.95, x+0.7'
   'z+0.45, -y+0.9, x+3/4'
   '-z+3/4, y+0.3, -x+0.45'
   '-z+0.7, y+0.35, x+0.65'
   'z+1/2, -y+0.85, -x+0.55'
   '-z+0.6, -y+0.8, -x+0.4'
   'z+0.4, y+0.2, x+0.6'
   'x+0.6, y+0.3, z+1/2'
   '-x+0.4, -y+0.9, -z+0.7'
   '-x+0.55, -y+0.95, z+0.4'
   'x+0.65, y+1/4, -z+0.6'
   '-x+0.45, y+0.2, -z+0.65'
   'x+3/4, -y+0.8, z+0.55'
   'x+0.7, -y+0.85, -z+3/4'
   '-x+1/2, y+0.35, z+0.45'
   'z+0.4, x+0.7, y+0.3'
   '-z+0.6, -x+1/2, -y+0.9'
   'z+1/2, -x+0.45, -y+0.95'
   '-z+0.7, x+3/4, y+1/4'
   '-z+3/4, -x+0.55, y+0.2'
   'z+0.45, x+0.65, -y+0.8'
   '-z+0.65, x+0.6, -y+0.85'
   'z+0.55, -x+0.4, y+0.35'
   'y+0.2, z+1/2, x+0.7'
   '-y+0.8, -z+0.7, -x+1/2'
   '-y+0.85, z+0.4, -x+0.45'
   'y+0.35, -z+0.6, x+3/4'
   'y+0.3, -z+0.65, -x+0.55'
   '-y+0.9, z+0.55, x+0.65'
   '-y+0.95, -z+3/4, x+0.6'
   'y+1/4, z+0.45, -x+0.4'
   'y+0.35, x+3/4, -z+0.6'
   '-y+0.85, -x+0.45, z+0.4'
   '-y+0.8, -x+1/2, -z+0.7'
   'y+0.2, x+0.7, z+1/2'
   'y+1/4, -x+0.4, z+0.45'
   '-y+0.95, x+0.6, -z+3/4'
   '-y+0.9, x+0.65, z+0.55'
   'y+0.3, -x+0.55, -z+0.65'
   'x+3/4, z+0.55, -y+0.8'
   '-x+0.45, -z+0.65, y+0.2'
   '-x+1/2, z+0.45, y+0.35'
   'x+0.7, -z+3/4, -y+0.85'
   '-x+0.4, -z+0.7, -y+0.9'
   'x+0.6, z+1/2, y+0.3'
   'x+0.65, -z+0.6, y+1/4'
   '-x+0.55, z+0.4, -y+0.95'
   'z+0.55, y+0.35, -x+0.4'
   '-z+0.65, -y+0.85, x+0.6'
   'z+0.45, -y+0.8, x+0.65'
   '-z+3/4, y+0.2, -x+0.55'
   '-z+0.7, y+1/4, x+3/4'
   'z+1/2, -y+0.95, -x+0.45'
   '-z+0.6, -y+0.9, -x+1/2'
   'z+0.4, y+0.3, x+0.7'
   'x+0.7, y+0.2, z+1/2'
   '-x+1/2, -y+0.8, -z+0.7'
   '-x+0.45, -y+0.85, z+0.4'
   'x+3/4, y+0.35, -z+0.6'
   '-x+0.55, y+0.3, -z+0.65'
   'x+0.65, -y+0.9, z+0.55'
   'x+0.6, -y+0.95, -z+3/4'
   '-x+0.4, y+1/4, z+0.45'
   'z+1/2, x+0.6, y+0.3'
   '-z+0.7, -x+0.4, -y+0.9'
   'z+0.4, -x+0.55, -y+0.95'
   '-z+0.6, x+0.65, y+1/4'
   '-z+0.65, -x+0.45, y+0.2'
   'z+0.55, x+3/4, -y+0.8'
   '-z+3/4, x+0.7, -y+0.85'
   'z+0.45, -x+1/2, y+0.35'
   'y+0.3, z+0.4, x+0.7'
   '-y+0.9, -z+0.6, -x+1/2'
   '-y+0.95, z+1/2, -x+0.45'
   'y+1/4, -z+0.7, x+3/4'
   'y+0.2, -z+3/4, -x+0.55'
   '-y+0.8, z+0.45, x+0.65'
   '-y+0.85, -z+0.65, x+0.6'
   'y+0.35, z+0.55, -x+0.4'
   'y+1/4, x+0.65, -z+0.6'
   '-y+0.95, -x+0.55, z+0.4'
   '-y+0.9, -x+0.4, -z+0.7'
   'y+0.3, x+0.6, z+1/2'
   'y+0.35, -x+1/2, z+0.45'
   '-y+0.85, x+0.7, -z+3/4'
   '-y+0.8, x+3/4, z+0.55'
   'y+0.2, -x+0.45, -z+0.65'
   'x+0.65, z+0.45, -y+0.8'
   '-x+0.55, -z+3/4, y+0.2'
   '-x+0.4, z+0.55, y+0.35'
   'x+0.6, -z+0.65, -y+0.85'
   '-x+1/2, -z+0.6, -y+0.9'
   'x+0.7, z+0.4, y+0.3'
   'x+3/4, -z+0.7, y+1/4'
   '-x+0.45, z+1/2, -y+0.95'
   'z+0.45, y+1/4, -x+0.4'
   '-z+3/4, -y+0.95, x+0.6'
   'z+0.55, -y+0.9, x+0.65'
   '-z+0.65, y+0.3, -x+0.55'
   '-z+0.6, y+0.35, x+3/4'
   'z+0.4, -y+0.85, -x+0.45'
   '-z+0.7, -y+0.8, -x+1/2'
   'z+1/2, y+0.2, x+0.7'
   'x+0.7, y+0.3, z+0.4'
   '-x+1/2, -y+0.9, -z+0.6'
   '-x+0.45, -y+0.95, z+1/2'
   'x+3/4, y+1/4, -z+0.7'
   '-x+0.55, y+0.2, -z+3/4'
   'x+0.65, -y+0.8, z+0.45'
   'x+0.6, -y+0.85, -z+0.65'
   '-x+0.4, y+0.35, z+0.55'
   'z+1/2, x+0.7, y+0.2'
   '-z+0.7, -x+1/2, -y+0.8'
   'z+0.4, -x+0.45, -y+0.85'
   '-z+0.6, x+3/4, y+0.35'
   '-z+0.65, -x+0.55, y+0.3'
   'z+0.55, x+0.65, -y+0.9'
   '-z+3/4, x+0.6, -y+0.95'
   'z+0.45, -x+0.4, y+1/4'
   'y+0.3, z+1/2, x+0.6'
   '-y+0.9, -z+0.7, -x+0.4'
   '-y+0.95, z+0.4, -x+0.55'
   'y+1/4, -z+0.6, x+0.65'
   'y+0.2, -z+0.65, -x+0.45'
   '-y+0.8, z+0.55, x+3/4'
   '-y+0.85, -z+3/4, x+0.7'
   'y+0.35, z+0.45, -x+1/2'
   'y+1/4, x+3/4, -z+0.7'
   '-y+0.95, -x+0.45, z+1/2'
   '-y+0.9, -x+1/2, -z+0.6'
   'y+0.3, x+0.7, z+0.4'
   'y+0.35, -x+0.4, z+0.55'
   '-y+0.85, x+0.6, -z+0.65'
   '-y+0.8, x+0.65, z+0.45'
   'y+0.2, -x+0.55, -z+3/4'
   'x+0.65, z+0.55, -y+0.9'
   '-x+0.55, -z+0.65, y+0.3'
   '-x+0.4, z+0.45, y+1/4'
   'x+0.6, -z+3/4, -y+0.95'
   '-x+1/2, -z+0.7, -y+0.8'
   'x+0.7, z+1/2, y+0.2'
   'x+3/4, -z+0.6, y+0.35'
   '-x+0.45, z+0.4, -y+0.85'
   'z+0.45, y+0.35, -x+1/2'
   '-z+3/4, -y+0.85, x+0.7'
   'z+0.55, -y+0.8, x+3/4'
   '-z+0.65, y+0.2, -x+0.45'
   '-z+0.6, y+1/4, x+0.65'
   'z+0.4, -y+0.95, -x+0.55'
   '-z+0.7, -y+0.9, -x+0.4'
   'z+1/2, y+0.3, x+0.6'
   'x+0.6, y+0.2, z+0.6'
   '-x+0.4, -y+0.8, -z+0.4'
   '-x+0.55, -y+0.85, z+0.7'
   'x+0.65, y+0.35, -z+1/2'
   '-x+0.45, y+0.3, -z+0.55'
   'x+3/4, -y+0.9, z+0.65'
   'x+0.7, -y+0.95, -z+0.45'
   '-x+1/2, y+1/4, z+3/4'
   'z+0.6, x+0.6, y+0.2'
   '-z+0.4, -x+0.4, -y+0.8'
   'z+0.7, -x+0.55, -y+0.85'
   '-z+1/2, x+0.65, y+0.35'
   '-z+0.55, -x+0.45, y+0.3'
   'z+0.65, x+3/4, -y+0.9'
   '-z+0.45, x+0.7, -y+0.95'
   'z+3/4, -x+1/2, y+1/4'
   'y+0.2, z+0.6, x+0.6'
   '-y+0.8, -z+0.4, -x+0.4'
   '-y+0.85, z+0.7, -x+0.55'
   'y+0.35, -z+1/2, x+0.65'
   'y+0.3, -z+0.55, -x+0.45'
   '-y+0.9, z+0.65, x+3/4'
   '-y+0.95, -z+0.45, x+0.7'
   'y+1/4, z+3/4, -x+1/2'
   'y+0.35, x+0.65, -z+1/2'
   '-y+0.85, -x+0.55, z+0.7'
   '-y+0.8, -x+0.4, -z+0.4'
   'y+0.2, x+0.6, z+0.6'
   'y+1/4, -x+1/2, z+3/4'
   '-y+0.95, x+0.7, -z+0.45'
   '-y+0.9, x+3/4, z+0.65'
   'y+0.3, -x+0.45, -z+0.55'
   'x+3/4, z+0.65, -y+0.9'
   '-x+0.45, -z+0.55, y+0.3'
   '-x+1/2, z+3/4, y+1/4'
   'x+0.7, -z+0.45, -y+0.95'
   '-x+0.4, -z+0.4, -y+0.8'
   'x+0.6, z+0.6, y+0.2'
   'x+0.65, -z+1/2, y+0.35'
   '-x+0.55, z+0.7, -y+0.85'
   'z+3/4, y+1/4, -x+1/2'
   '-z+0.45, -y+0.95, x+0.7'
   'z+0.65, -y+0.9, x+3/4'
   '-z+0.55, y+0.3, -x+0.45'
   '-z+1/2, y+0.35, x+0.65'
   'z+0.7, -y+0.85, -x+0.55'
   '-z+0.4, -y+0.8, -x+0.4'
   'z+0.6, y+0.2, x+0.6'
   'x+0.6, y+0.3, z+0.7'
   '-x+0.4, -y+0.9, -z+1/2'
   '-x+0.55, -y+0.95, z+0.6'
   'x+0.65, y+1/4, -z+0.4'
   '-x+0.45, y+0.2, -z+0.45'
   'x+3/4, -y+0.8, z+3/4'
   'x+0.7, -y+0.85, -z+0.55'
   '-x+1/2, y+0.35, z+0.65'
   'z+0.6, x+0.7, y+0.3'
   '-z+0.4, -x+1/2, -y+0.9'
   'z+0.7, -x+0.45, -y+0.95'
   '-z+1/2, x+3/4, y+1/4'
   '-z+0.55, -x+0.55, y+0.2'
   'z+0.65, x+0.65, -y+0.8'
   '-z+0.45, x+0.6, -y+0.85'
   'z+3/4, -x+0.4, y+0.35'
   'y+0.2, z+0.7, x+0.7'
   '-y+0.8, -z+1/2, -x+1/2'
   '-y+0.85, z+0.6, -x+0.45'
   'y+0.35, -z+0.4, x+3/4'
   'y+0.3, -z+0.45, -x+0.55'
   '-y+0.9, z+3/4, x+0.65'
   '-y+0.95, -z+0.55, x+0.6'
   'y+1/4, z+0.65, -x+0.4'
   'y+0.35, x+3/4, -z+0.4'
   '-y+0.85, -x+0.45, z+0.6'
   '-y+0.8, -x+1/2, -z+1/2'
   'y+0.2, x+0.7, z+0.7'
   'y+1/4, -x+0.4, z+0.65'
   '-y+0.95, x+0.6, -z+0.55'
   '-y+0.9, x+0.65, z+3/4'
   'y+0.3, -x+0.55, -z+0.45'
   'x+3/4, z+3/4, -y+0.8'
   '-x+0.45, -z+0.45, y+0.2'
   '-x+1/2, z+0.65, y+0.35'
   'x+0.7, -z+0.55, -y+0.85'
   '-x+0.4, -z+1/2, -y+0.9'
   'x+0.6, z+0.7, y+0.3'
   'x+0.65, -z+0.4, y+1/4'
   '-x+0.55, z+0.6, -y+0.95'
   'z+3/4, y+0.35, -x+0.4'
   '-z+0.45, -y+0.85, x+0.6'
   'z+0.65, -y+0.8, x+0.65'
   '-z+0.55, y+0.2, -x+0.55'
   '-z+1/2, y+1/4, x+3/4'
   'z+0.7, -y+0.95, -x+0.45'
   '-z+0.4, -y+0.9, -x+1/2'
   'z+0.6, y+0.3, x+0.7'
   'x+0.7, y+0.2, z+0.7'
   '-x+1/2, -y+0.8, -z+1/2'
   '-x+0.45, -y+0.85, z+0.6'
   'x+3/4, y+0.35, -z+0.4'
   '-x+0.55, y+0.3, -z+0.45'
   'x+0.65, -y+0.9, z+3/4'
   'x+0.6, -y+0.95, -z+0.55'
   '-x+0.4, y+1/4, z+0.65'
   'z+0.7, x+0.6, y+0.3'
   '-z+1/2, -x+0.4, -y+0.9'
   'z+0.6, -x+0.55, -y+0.95'
   '-z+0.4, x+0.65, y+1/4'
   '-z+0.45, -x+0.45, y+0.2'
   'z+3/4, x+3/4, -y+0.8'
   '-z+0.55, x+0.7, -y+0.85'
   'z+0.65, -x+1/2, y+0.35'
   'y+0.3, z+0.6, x+0.7'
   '-y+0.9, -z+0.4, -x+1/2'
   '-y+0.95, z+0.7, -x+0.45'
   'y+1/4, -z+1/2, x+3/4'
   'y+0.2, -z+0.55, -x+0.55'
   '-y+0.8, z+0.65, x+0.65'
   '-y+0.85, -z+0.45, x+0.6'
   'y+0.35, z+3/4, -x+0.4'
   'y+1/4, x+0.65, -z+0.4'
   '-y+0.95, -x+0.55, z+0.6'
   '-y+0.9, -x+0.4, -z+1/2'
   'y+0.3, x+0.6, z+0.7'
   'y+0.35, -x+1/2, z+0.65'
   '-y+0.85, x+0.7, -z+0.55'
   '-y+0.8, x+3/4, z+3/4'
   'y+0.2, -x+0.45, -z+0.45'
   'x+0.65, z+0.65, -y+0.8'
   '-x+0.55, -z+0.55, y+0.2'
   '-x+0.4, z+3/4, y+0.35'
   'x+0.6, -z+0.45, -y+0.85'
   '-x+1/2, -z+0.4, -y+0.9'
   'x+0.7, z+0.6, y+0.3'
   'x+3/4, -z+1/2, y+1/4'
   '-x+0.45, z+0.7, -y+0.95'
   'z+0.65, y+1/4, -x+0.4'
   '-z+0.55, -y+0.95, x+0.6'
   'z+3/4, -y+0.9, x+0.65'
   '-z+0.45, y+0.3, -x+0.55'
   '-z+0.4, y+0.35, x+3/4'
   'z+0.6, -y+0.85, -x+0.45'
   '-z+1/2, -y+0.8, -x+1/2'
   'z+0.7, y+0.2, x+0.7'
   'x+0.7, y+0.3, z+0.6'
   '-x+1/2, -y+0.9, -z+0.4'
   '-x+0.45, -y+0.95, z+0.7'
   'x+3/4, y+1/4, -z+1/2'
   '-x+0.55, y+0.2, -z+0.55'
   'x+0.65, -y+0.8, z+0.65'
   'x+0.6, -y+0.85, -z+0.45'
   '-x+0.4, y+0.35, z+3/4'
   'z+0.7, x+0.7, y+0.2'
   '-z+1/2, -x+1/2, -y+0.8'
   'z+0.6, -x+0.45, -y+0.85'
   '-z+0.4, x+3/4, y+0.35'
   '-z+0.45, -x+0.55, y+0.3'
   'z+3/4, x+0.65, -y+0.9'
   '-z+0.55, x+0.6, -y+0.95'
   'z+0.65, -x+0.4, y+1/4'
   'y+0.3, z+0.7, x+0.6'
   '-y+0.9, -z+1/2, -x+0.4'
   '-y+0.95, z+0.6, -x+0.55'
   'y+1/4, -z+0.4, x+0.65'
   'y+0.2, -z+0.45, -x+0.45'
   '-y+0.8, z+3/4, x+3/4'
   '-y+0.85, -z+0.55, x+0.7'
   'y+0.35, z+0.65, -x+1/2'
   'y+1/4, x+3/4, -z+1/2'
   '-y+0.95, -x+0.45, z+0.7'
   '-y+0.9, -x+1/2, -z+0.4'
   'y+0.3, x+0.7, z+0.6'
   'y+0.35, -x+0.4, z+3/4'
   '-y+0.85, x+0.6, -z+0.45'
   '-y+0.8, x+0.65, z+0.65'
   'y+0.2, -x+0.55, -z+0.55'
   'x+0.65, z+3/4, -y+0.9'
   '-x+0.55, -z+0.45, y+0.3'
   '-x+0.4, z+0.65, y+1/4'
   'x+0.6, -z+0.55, -y+0.95'
   '-x+1/2, -z+1/2, -y+0.8'
   'x+0.7, z+0.7, y+0.2'
   'x+3/4, -z+0.4, y+0.35'
   '-x+0.45, z+0.6, -y+0.85'
   'z+0.65, y+0.35, -x+1/2'
   '-z+0.55, -y+0.85, x+0.7'
   'z+3/4, -y+0.8, x+3/4'
   '-z+0.45, y+0.2, -x+0.45'
   '-z+0.4, y+1/4, x+0.65'
   'z+0.6, -y+0.95, -x+0.55'
   '-z+1/2, -y+0.9, -x+0.4'
   'z+0.7, y+0.3, x+0.6'
   'x+0.6, y+0.2, z+0.8'
   '-x+0.4, -y+0.8, -z+0.2'
   '-x+0.55, -y+0.85, z+0.9'
   'x+0.65, y+0.35, -z+0.3'
   '-x+0.45, y+0.3, -z+0.35'
   'x+3/4, -y+0.9, z+0.85'
   'x+0.7, -y+0.95, -z+1/4'
   '-x+1/2, y+1/4, z+0.95'
   'z+0.8, x+0.6, y+0.2'
   '-z+0.2, -x+0.4, -y+0.8'
   'z+0.9, -x+0.55, -y+0.85'
   '-z+0.3, x+0.65, y+0.35'
   '-z+0.35, -x+0.45, y+0.3'
   'z+0.85, x+3/4, -y+0.9'
   '-z+1/4, x+0.7, -y+0.95'
   'z+0.95, -x+1/2, y+1/4'
   'y+0.2, z+0.8, x+0.6'
   '-y+0.8, -z+0.2, -x+0.4'
   '-y+0.85, z+0.9, -x+0.55'
   'y+0.35, -z+0.3, x+0.65'
   'y+0.3, -z+0.35, -x+0.45'
   '-y+0.9, z+0.85, x+3/4'
   '-y+0.95, -z+1/4, x+0.7'
   'y+1/4, z+0.95, -x+1/2'
   'y+0.35, x+0.65, -z+0.3'
   '-y+0.85, -x+0.55, z+0.9'
   '-y+0.8, -x+0.4, -z+0.2'
   'y+0.2, x+0.6, z+0.8'
   'y+1/4, -x+1/2, z+0.95'
   '-y+0.95, x+0.7, -z+1/4'
   '-y+0.9, x+3/4, z+0.85'
   'y+0.3, -x+0.45, -z+0.35'
   'x+3/4, z+0.85, -y+0.9'
   '-x+0.45, -z+0.35, y+0.3'
   '-x+1/2, z+0.95, y+1/4'
   'x+0.7, -z+1/4, -y+0.95'
   '-x+0.4, -z+0.2, -y+0.8'
   'x+0.6, z+0.8, y+0.2'
   'x+0.65, -z+0.3, y+0.35'
   '-x+0.55, z+0.9, -y+0.85'
   'z+0.95, y+1/4, -x+1/2'
   '-z+1/4, -y+0.95, x+0.7'
   'z+0.85, -y+0.9, x+3/4'
   '-z+0.35, y+0.3, -x+0.45'
   '-z+0.3, y+0.35, x+0.65'
   'z+0.9, -y+0.85, -x+0.55'
   '-z+0.2, -y+0.8, -x+0.4'
   'z+0.8, y+0.2, x+0.6'
   'x+0.6, y+0.3, z+0.9'
   '-x+0.4, -y+0.9, -z+0.3'
   '-x+0.55, -y+0.95, z+0.8'
   'x+0.65, y+1/4, -z+0.2'
   '-x+0.45, y+0.2, -z+1/4'
   'x+3/4, -y+0.8, z+0.95'
   'x+0.7, -y+0.85, -z+0.35'
   '-x+1/2, y+0.35, z+0.85'
   'z+0.8, x+0.7, y+0.3'
   '-z+0.2, -x+1/2, -y+0.9'
   'z+0.9, -x+0.45, -y+0.95'
   '-z+0.3, x+3/4, y+1/4'
   '-z+0.35, -x+0.55, y+0.2'
   'z+0.85, x+0.65, -y+0.8'
   '-z+1/4, x+0.6, -y+0.85'
   'z+0.95, -x+0.4, y+0.35'
   'y+0.2, z+0.9, x+0.7'
   '-y+0.8, -z+0.3, -x+1/2'
   '-y+0.85, z+0.8, -x+0.45'
   'y+0.35, -z+0.2, x+3/4'
   'y+0.3, -z+1/4, -x+0.55'
   '-y+0.9, z+0.95, x+0.65'
   '-y+0.95, -z+0.35, x+0.6'
   'y+1/4, z+0.85, -x+0.4'
   'y+0.35, x+3/4, -z+0.2'
   '-y+0.85, -x+0.45, z+0.8'
   '-y+0.8, -x+1/2, -z+0.3'
   'y+0.2, x+0.7, z+0.9'
   'y+1/4, -x+0.4, z+0.85'
   '-y+0.95, x+0.6, -z+0.35'
   '-y+0.9, x+0.65, z+0.95'
   'y+0.3, -x+0.55, -z+1/4'
   'x+3/4, z+0.95, -y+0.8'
   '-x+0.45, -z+1/4, y+0.2'
   '-x+1/2, z+0.85, y+0.35'
   'x+0.7, -z+0.35, -y+0.85'
   '-x+0.4, -z+0.3, -y+0.9'
   'x+0.6, z+0.9, y+0.3'
   'x+0.65, -z+0.2, y+1/4'
   '-x+0.55, z+0.8, -y+0.95'
   'z+0.95, y+0.35, -x+0.4'
   '-z+1/4, -y+0.85, x+0.6'
   'z+0.85, -y+0.8, x+0.65'
   '-z+0.35, y+0.2, -x+0.55'
   '-z+0.3, y+1/4, x+3/4'
   'z+0.9, -y+0.95, -x+0.45'
   '-z+0.2, -y+0.9, -x+1/2'
   'z+0.8, y+0.3, x+0.7'
   'x+0.7, y+0.2, z+0.9'
   '-x+1/2, -y+0.8, -z+0.3'
   '-x+0.45, -y+0.85, z+0.8'
   'x+3/4, y+0.35, -z+0.2'
   '-x+0.55, y+0.3, -z+1/4'
   'x+0.65, -y+0.9, z+0.95'
   'x+0.6, -y+0.95, -z+0.35'
   '-x+0.4, y+1/4, z+0.85'
   'z+0.9, x+0.6, y+0.3'
   '-z+0.3, -x+0.4, -y+0.9'
   'z+0.8, -x+0.55, -y+0.95'
   '-z+0.2, x+0.65, y+1/4'
   '-z+1/4, -x+0.45, y+0.2'
   'z+0.95, x+3/4, -y+0.8'
   '-z+0.35, x+0.7, -y+0.85'
   'z+0.85, -x+1/2, y+0.35'
   'y+0.3, z+0.8, x+0.7'
   '-y+0.9, -z+0.2, -x+1/2'
   '-y+0.95, z+0.9, -x+0.45'
   'y+1/4, -z+0.3, x+3/4'
   'y+0.2, -z+0.35, -x+0.55'
   '-y+0.8, z+0.85, x+0.65'
   '-y+0.85, -z+1/4, x+0.6'
   'y+0.35, z+0.95, -x+0.4'
   'y+1/4, x+0.65, -z+0.2'
   '-y+0.95, -x+0.55, z+0.8'
   '-y+0.9, -x+0.4, -z+0.3'
   'y+0.3, x+0.6, z+0.9'
   'y+0.35, -x+1/2, z+0.85'
   '-y+0.85, x+0.7, -z+0.35'
   '-y+0.8, x+3/4, z+0.95'
   'y+0.2, -x+0.45, -z+1/4'
   'x+0.65, z+0.85, -y+0.8'
   '-x+0.55, -z+0.35, y+0.2'
   '-x+0.4, z+0.95, y+0.35'
   'x+0.6, -z+1/4, -y+0.85'
   '-x+1/2, -z+0.2, -y+0.9'
   'x+0.7, z+0.8, y+0.3'
   'x+3/4, -z+0.3, y+1/4'
   '-x+0.45, z+0.9, -y+0.95'
   'z+0.85, y+1/4, -x+0.4'
   '-z+0.35, -y+0.95, x+0.6'
   'z+0.95, -y+0.9, x+0.65'
   '-z+1/4, y+0.3, -x+0.55'
   '-z+0.2, y+0.35, x+3/4'
   'z+0.8, -y+0.85, -x+0.45'
   '-z+0.3, -y+0.8, -x+1/2'
   'z+0.9, y+0.2, x+0.7'
   'x+0.7, y+0.3, z+0.8'
   '-x+1/2, -y+0.9, -z+0.2'
   '-x+0.45, -y+0.95, z+0.9'
   'x+3/4, y+1/4, -z+0.3'
   '-x+0.55, y+0.2, -z+0.35'
   'x+0.65, -y+0.8, z+0.85'
   'x+0.6, -y+0.85, -z+1/4'
   '-x+0.4, y+0.35, z+0.95'
   'z+0.9, x+0.7, y+0.2'
   '-z+0.3, -x+1/2, -y+0.8'
   'z+0.8, -x+0.45, -y+0.85'
   '-z+0.2, x+3/4, y+0.35'
   '-z+1/4, -x+0.55, y+0.3'
   'z+0.95, x+0.65, -y+0.9'
   '-z+0.35, x+0.6, -y+0.95'
   'z+0.85, -x+0.4, y+1/4'
   'y+0.3, z+0.9, x+0.6'
   '-y+0.9, -z+0.3, -x+0.4'
   '-y+0.95, z+0.8, -x+0.55'
   'y+1/4, -z+0.2, x+0.65'
   'y+0.2, -z+1/4, -x+0.45'
   '-y+0.8, z+0.95, x+3/4'
   '-y+0.85, -z+0.35, x+0.7'
   'y+0.35, z+0.85, -x+1/2'
   'y+1/4, x+3/4, -z+0.3'
   '-y+0.95, -x+0.45, z+0.9'
   '-y+0.9, -x+1/2, -z+0.2'
   'y+0.3, x+0.7, z+0.8'
   'y+0.35, -x+0.4, z+0.95'
   '-y+0.85, x+0.6, -z+1/4'
   '-y+0.8, x+0.65, z+0.85'
   'y+0.2, -x+0.55, -z+0.35'
   'x+0.65, z+0.95, -y+0.9'
   '-x+0.55, -z+1/4, y+0.3'
   '-x+0.4, z+0.85, y+1/4'
   'x+0.6, -z+0.35, -y+0.95'
   '-x+1/2, -z+0.3, -y+0.8'
   'x+0.7, z+0.9, y+0.2'
   'x+3/4, -z+0.2, y+0.35'
   '-x+0.45, z+0.8, -y+0.85'
   'z+0.85, y+0.35, -x+1/2'
   '-z+0.35, -y+0.85, x+0.7'
   'z+0.95, -y+0.8, x+3/4'
   '-z+1/4, y+0.2, -x+0.45'
   '-z+0.2, y+1/4, x+0.65'
   'z+0.8, -y+0.95, -x+0.55'
   '-z+0.3, -y+0.9, -x+0.4'
   'z+0.9, y+0.3, x+0.6'
   'x+0.6, y+0.4, z'
   '-x+0.4, -y+0.6, -z'
   '-x+0.55, -y+0.65, z+0.1'
   'x+0.65, y+0.55, -z+0.1'
   '-x+0.45, y+1/2, -z+0.15'
   'x+3/4, -y+0.7, z+0.05'
   'x+0.7, -y+3/4, -z+0.05'
   '-x+1/2, y+0.45, z+0.15'
   'z, x+0.6, y+0.4'
   '-z, -x+0.4, -y+0.6'
   'z+0.1, -x+0.55, -y+0.65'
   '-z+0.1, x+0.65, y+0.55'
   '-z+0.15, -x+0.45, y+1/2'
   'z+0.05, x+3/4, -y+0.7'
   '-z+0.05, x+0.7, -y+3/4'
   'z+0.15, -x+1/2, y+0.45'
   'y+0.4, z, x+0.6'
   '-y+0.6, -z, -x+0.4'
   '-y+0.65, z+0.1, -x+0.55'
   'y+0.55, -z+0.1, x+0.65'
   'y+1/2, -z+0.15, -x+0.45'
   '-y+0.7, z+0.05, x+3/4'
   '-y+3/4, -z+0.05, x+0.7'
   'y+0.45, z+0.15, -x+1/2'
   'y+0.55, x+0.65, -z+0.1'
   '-y+0.65, -x+0.55, z+0.1'
   '-y+0.6, -x+0.4, -z'
   'y+0.4, x+0.6, z'
   'y+0.45, -x+1/2, z+0.15'
   '-y+3/4, x+0.7, -z+0.05'
   '-y+0.7, x+3/4, z+0.05'
   'y+1/2, -x+0.45, -z+0.15'
   'x+3/4, z+0.05, -y+0.7'
   '-x+0.45, -z+0.15, y+1/2'
   '-x+1/2, z+0.15, y+0.45'
   'x+0.7, -z+0.05, -y+3/4'
   '-x+0.4, -z, -y+0.6'
   'x+0.6, z, y+0.4'
   'x+0.65, -z+0.1, y+0.55'
   '-x+0.55, z+0.1, -y+0.65'
   'z+0.15, y+0.45, -x+1/2'
   '-z+0.05, -y+3/4, x+0.7'
   'z+0.05, -y+0.7, x+3/4'
   '-z+0.15, y+1/2, -x+0.45'
   '-z+0.1, y+0.55, x+0.65'
   'z+0.1, -y+0.65, -x+0.55'
   '-z, -y+0.6, -x+0.4'
   'z, y+0.4, x+0.6'
   'x+0.6, y+1/2, z+0.1'
   '-x+0.4, -y+0.7, -z+0.1'
   '-x+0.55, -y+3/4, z'
   'x+0.65, y+0.45, -z'
   '-x+0.45, y+0.4, -z+0.05'
   'x+3/4, -y+0.6, z+0.15'
   'x+0.7, -y+0.65, -z+0.15'
   '-x+1/2, y+0.55, z+0.05'
   'z, x+0.7, y+1/2'
   '-z, -x+1/2, -y+0.7'
   'z+0.1, -x+0.45, -y+3/4'
   '-z+0.1, x+3/4, y+0.45'
   '-z+0.15, -x+0.55, y+0.4'
   'z+0.05, x+0.65, -y+0.6'
   '-z+0.05, x+0.6, -y+0.65'
   'z+0.15, -x+0.4, y+0.55'
   'y+0.4, z+0.1, x+0.7'
   '-y+0.6, -z+0.1, -x+1/2'
   '-y+0.65, z, -x+0.45'
   'y+0.55, -z, x+3/4'
   'y+1/2, -z+0.05, -x+0.55'
   '-y+0.7, z+0.15, x+0.65'
   '-y+3/4, -z+0.15, x+0.6'
   'y+0.45, z+0.05, -x+0.4'
   'y+0.55, x+3/4, -z'
   '-y+0.65, -x+0.45, z'
   '-y+0.6, -x+1/2, -z+0.1'
   'y+0.4, x+0.7, z+0.1'
   'y+0.45, -x+0.4, z+0.05'
   '-y+3/4, x+0.6, -z+0.15'
   '-y+0.7, x+0.65, z+0.15'
   'y+1/2, -x+0.55, -z+0.05'
   'x+3/4, z+0.15, -y+0.6'
   '-x+0.45, -z+0.05, y+0.4'
   '-x+1/2, z+0.05, y+0.55'
   'x+0.7, -z+0.15, -y+0.65'
   '-x+0.4, -z+0.1, -y+0.7'
   'x+0.6, z+0.1, y+1/2'
   'x+0.65, -z, y+0.45'
   '-x+0.55, z, -y+3/4'
   'z+0.15, y+0.55, -x+0.4'
   '-z+0.05, -y+0.65, x+0.6'
   'z+0.05, -y+0.6, x+0.65'
   '-z+0.15, y+0.4, -x+0.55'
   '-z+0.1, y+0.45, x+3/4'
   'z+0.1, -y+3/4, -x+0.45'
   '-z, -y+0.7, -x+1/2'
   'z, y+1/2, x+0.7'
   'x+0.7, y+0.4, z+0.1'
   '-x+1/2, -y+0.6, -z+0.1'
   '-x+0.45, -y+0.65, z'
   'x+3/4, y+0.55, -z'
   '-x+0.55, y+1/2, -z+0.05'
   'x+0.65, -y+0.7, z+0.15'
   'x+0.6, -y+3/4, -z+0.15'
   '-x+0.4, y+0.45, z+0.05'
   'z+0.1, x+0.6, y+1/2'
   '-z+0.1, -x+0.4, -y+0.7'
   'z, -x+0.55, -y+3/4'
   '-z, x+0.65, y+0.45'
   '-z+0.05, -x+0.45, y+0.4'
   'z+0.15, x+3/4, -y+0.6'
   '-z+0.15, x+0.7, -y+0.65'
   'z+0.05, -x+1/2, y+0.55'
   'y+1/2, z, x+0.7'
   '-y+0.7, -z, -x+1/2'
   '-y+3/4, z+0.1, -x+0.45'
   'y+0.45, -z+0.1, x+3/4'
   'y+0.4, -z+0.15, -x+0.55'
   '-y+0.6, z+0.05, x+0.65'
   '-y+0.65, -z+0.05, x+0.6'
   'y+0.55, z+0.15, -x+0.4'
   'y+0.45, x+0.65, -z'
   '-y+3/4, -x+0.55, z'
   '-y+0.7, -x+0.4, -z+0.1'
   'y+1/2, x+0.6, z+0.1'
   'y+0.55, -x+1/2, z+0.05'
   '-y+0.65, x+0.7, -z+0.15'
   '-y+0.6, x+3/4, z+0.15'
   'y+0.4, -x+0.45, -z+0.05'
   'x+0.65, z+0.05, -y+0.6'
   '-x+0.55, -z+0.15, y+0.4'
   '-x+0.4, z+0.15, y+0.55'
   'x+0.6, -z+0.05, -y+0.65'
   '-x+1/2, -z, -y+0.7'
   'x+0.7, z, y+1/2'
   'x+3/4, -z+0.1, y+0.45'
   '-x+0.45, z+0.1, -y+3/4'
   'z+0.05, y+0.45, -x+0.4'
   '-z+0.15, -y+3/4, x+0.6'
   'z+0.15, -y+0.7, x+0.65'
   '-z+0.05, y+1/2, -x+0.55'
   '-z, y+0.55, x+3/4'
   'z, -y+0.65, -x+0.45'
   '-z+0.1, -y+0.6, -x+1/2'
   'z+0.1, y+0.4, x+0.7'
   'x+0.7, y+1/2, z'
   '-x+1/2, -y+0.7, -z'
   '-x+0.45, -y+3/4, z+0.1'
   'x+3/4, y+0.45, -z+0.1'
   '-x+0.55, y+0.4, -z+0.15'
   'x+0.65, -y+0.6, z+0.05'
   'x+0.6, -y+0.65, -z+0.05'
   '-x+0.4, y+0.55, z+0.15'
   'z+0.1, x+0.7, y+0.4'
   '-z+0.1, -x+1/2, -y+0.6'
   'z, -x+0.45, -y+0.65'
   '-z, x+3/4, y+0.55'
   '-z+0.05, -x+0.55, y+1/2'
   'z+0.15, x+0.65, -y+0.7'
   '-z+0.15, x+0.6, -y+3/4'
   'z+0.05, -x+0.4, y+0.45'
   'y+1/2, z+0.1, x+0.6'
   '-y+0.7, -z+0.1, -x+0.4'
   '-y+3/4, z, -x+0.55'
   'y+0.45, -z, x+0.65'
   'y+0.4, -z+0.05, -x+0.45'
   '-y+0.6, z+0.15, x+3/4'
   '-y+0.65, -z+0.15, x+0.7'
   'y+0.55, z+0.05, -x+1/2'
   'y+0.45, x+3/4, -z+0.1'
   '-y+3/4, -x+0.45, z+0.1'
   '-y+0.7, -x+1/2, -z'
   'y+1/2, x+0.7, z'
   'y+0.55, -x+0.4, z+0.15'
   '-y+0.65, x+0.6, -z+0.05'
   '-y+0.6, x+0.65, z+0.05'
   'y+0.4, -x+0.55, -z+0.15'
   'x+0.65, z+0.15, -y+0.7'
   '-x+0.55, -z+0.05, y+1/2'
   '-x+0.4, z+0.05, y+0.45'
   'x+0.6, -z+0.15, -y+3/4'
   '-x+1/2, -z+0.1, -y+0.6'
   'x+0.7, z+0.1, y+0.4'
   'x+3/4, -z, y+0.55'
   '-x+0.45, z, -y+0.65'
   'z+0.05, y+0.55, -x+1/2'
   '-z+0.15, -y+0.65, x+0.7'
   'z+0.15, -y+0.6, x+3/4'
   '-z+0.05, y+0.4, -x+0.45'
   '-z, y+0.45, x+0.65'
   'z, -y+3/4, -x+0.55'
   '-z+0.1, -y+0.7, -x+0.4'
   'z+0.1, y+1/2, x+0.6'
   'x+0.6, y+0.4, z+0.2'
   '-x+0.4, -y+0.6, -z+0.8'
   '-x+0.55, -y+0.65, z+0.3'
   'x+0.65, y+0.55, -z+0.9'
   '-x+0.45, y+1/2, -z+0.95'
   'x+3/4, -y+0.7, z+1/4'
   'x+0.7, -y+3/4, -z+0.85'
   '-x+1/2, y+0.45, z+0.35'
   'z+0.2, x+0.6, y+0.4'
   '-z+0.8, -x+0.4, -y+0.6'
   'z+0.3, -x+0.55, -y+0.65'
   '-z+0.9, x+0.65, y+0.55'
   '-z+0.95, -x+0.45, y+1/2'
   'z+1/4, x+3/4, -y+0.7'
   '-z+0.85, x+0.7, -y+3/4'
   'z+0.35, -x+1/2, y+0.45'
   'y+0.4, z+0.2, x+0.6'
   '-y+0.6, -z+0.8, -x+0.4'
   '-y+0.65, z+0.3, -x+0.55'
   'y+0.55, -z+0.9, x+0.65'
   'y+1/2, -z+0.95, -x+0.45'
   '-y+0.7, z+1/4, x+3/4'
   '-y+3/4, -z+0.85, x+0.7'
   'y+0.45, z+0.35, -x+1/2'
   'y+0.55, x+0.65, -z+0.9'
   '-y+0.65, -x+0.55, z+0.3'
   '-y+0.6, -x+0.4, -z+0.8'
   'y+0.4, x+0.6, z+0.2'
   'y+0.45, -x+1/2, z+0.35'
   '-y+3/4, x+0.7, -z+0.85'
   '-y+0.7, x+3/4, z+1/4'
   'y+1/2, -x+0.45, -z+0.95'
   'x+3/4, z+1/4, -y+0.7'
   '-x+0.45, -z+0.95, y+1/2'
   '-x+1/2, z+0.35, y+0.45'
   'x+0.7, -z+0.85, -y+3/4'
   '-x+0.4, -z+0.8, -y+0.6'
   'x+0.6, z+0.2, y+0.4'
   'x+0.65, -z+0.9, y+0.55'
   '-x+0.55, z+0.3, -y+0.65'
   'z+0.35, y+0.45, -x+1/2'
   '-z+0.85, -y+3/4, x+0.7'
   'z+1/4, -y+0.7, x+3/4'
   '-z+0.95, y+1/2, -x+0.45'
   '-z+0.9, y+0.55, x+0.65'
   'z+0.3, -y+0.65, -x+0.55'
   '-z+0.8, -y+0.6, -x+0.4'
   'z+0.2, y+0.4, x+0.6'
   'x+0.6, y+1/2, z+0.3'
   '-x+0.4, -y+0.7, -z+0.9'
   '-x+0.55, -y+3/4, z+0.2'
   'x+0.65, y+0.45, -z+0.8'
   '-x+0.45, y+0.4, -z+0.85'
   'x+3/4, -y+0.6, z+0.35'
   'x+0.7, -y+0.65, -z+0.95'
   '-x+1/2, y+0.55, z+1/4'
   'z+0.2, x+0.7, y+1/2'
   '-z+0.8, -x+1/2, -y+0.7'
   'z+0.3, -x+0.45, -y+3/4'
   '-z+0.9, x+3/4, y+0.45'
   '-z+0.95, -x+0.55, y+0.4'
   'z+1/4, x+0.65, -y+0.6'
   '-z+0.85, x+0.6, -y+0.65'
   'z+0.35, -x+0.4, y+0.55'
   'y+0.4, z+0.3, x+0.7'
   '-y+0.6, -z+0.9, -x+1/2'
   '-y+0.65, z+0.2, -x+0.45'
   'y+0.55, -z+0.8, x+3/4'
   'y+1/2, -z+0.85, -x+0.55'
   '-y+0.7, z+0.35, x+0.65'
   '-y+3/4, -z+0.95, x+0.6'
   'y+0.45, z+1/4, -x+0.4'
   'y+0.55, x+3/4, -z+0.8'
   '-y+0.65, -x+0.45, z+0.2'
   '-y+0.6, -x+1/2, -z+0.9'
   'y+0.4, x+0.7, z+0.3'
   'y+0.45, -x+0.4, z+1/4'
   '-y+3/4, x+0.6, -z+0.95'
   '-y+0.7, x+0.65, z+0.35'
   'y+1/2, -x+0.55, -z+0.85'
   'x+3/4, z+0.35, -y+0.6'
   '-x+0.45, -z+0.85, y+0.4'
   '-x+1/2, z+1/4, y+0.55'
   'x+0.7, -z+0.95, -y+0.65'
   '-x+0.4, -z+0.9, -y+0.7'
   'x+0.6, z+0.3, y+1/2'
   'x+0.65, -z+0.8, y+0.45'
   '-x+0.55, z+0.2, -y+3/4'
   'z+0.35, y+0.55, -x+0.4'
   '-z+0.85, -y+0.65, x+0.6'
   'z+1/4, -y+0.6, x+0.65'
   '-z+0.95, y+0.4, -x+0.55'
   '-z+0.9, y+0.45, x+3/4'
   'z+0.3, -y+3/4, -x+0.45'
   '-z+0.8, -y+0.7, -x+1/2'
   'z+0.2, y+1/2, x+0.7'
   'x+0.7, y+0.4, z+0.3'
   '-x+1/2, -y+0.6, -z+0.9'
   '-x+0.45, -y+0.65, z+0.2'
   'x+3/4, y+0.55, -z+0.8'
   '-x+0.55, y+1/2, -z+0.85'
   'x+0.65, -y+0.7, z+0.35'
   'x+0.6, -y+3/4, -z+0.95'
   '-x+0.4, y+0.45, z+1/4'
   'z+0.3, x+0.6, y+1/2'
   '-z+0.9, -x+0.4, -y+0.7'
   'z+0.2, -x+0.55, -y+3/4'
   '-z+0.8, x+0.65, y+0.45'
   '-z+0.85, -x+0.45, y+0.4'
   'z+0.35, x+3/4, -y+0.6'
   '-z+0.95, x+0.7, -y+0.65'
   'z+1/4, -x+1/2, y+0.55'
   'y+1/2, z+0.2, x+0.7'
   '-y+0.7, -z+0.8, -x+1/2'
   '-y+3/4, z+0.3, -x+0.45'
   'y+0.45, -z+0.9, x+3/4'
   'y+0.4, -z+0.95, -x+0.55'
   '-y+0.6, z+1/4, x+0.65'
   '-y+0.65, -z+0.85, x+0.6'
   'y+0.55, z+0.35, -x+0.4'
   'y+0.45, x+0.65, -z+0.8'
   '-y+3/4, -x+0.55, z+0.2'
   '-y+0.7, -x+0.4, -z+0.9'
   'y+1/2, x+0.6, z+0.3'
   'y+0.55, -x+1/2, z+1/4'
   '-y+0.65, x+0.7, -z+0.95'
   '-y+0.6, x+3/4, z+0.35'
   'y+0.4, -x+0.45, -z+0.85'
   'x+0.65, z+1/4, -y+0.6'
   '-x+0.55, -z+0.95, y+0.4'
   '-x+0.4, z+0.35, y+0.55'
   'x+0.6, -z+0.85, -y+0.65'
   '-x+1/2, -z+0.8, -y+0.7'
   'x+0.7, z+0.2, y+1/2'
   'x+3/4, -z+0.9, y+0.45'
   '-x+0.45, z+0.3, -y+3/4'
   'z+1/4, y+0.45, -x+0.4'
   '-z+0.95, -y+3/4, x+0.6'
   'z+0.35, -y+0.7, x+0.65'
   '-z+0.85, y+1/2, -x+0.55'
   '-z+0.8, y+0.55, x+3/4'
   'z+0.2, -y+0.65, -x+0.45'
   '-z+0.9, -y+0.6, -x+1/2'
   'z+0.3, y+0.4, x+0.7'
   'x+0.7, y+1/2, z+0.2'
   '-x+1/2, -y+0.7, -z+0.8'
   '-x+0.45, -y+3/4, z+0.3'
   'x+3/4, y+0.45, -z+0.9'
   '-x+0.55, y+0.4, -z+0.95'
   'x+0.65, -y+0.6, z+1/4'
   'x+0.6, -y+0.65, -z+0.85'
   '-x+0.4, y+0.55, z+0.35'
   'z+0.3, x+0.7, y+0.4'
   '-z+0.9, -x+1/2, -y+0.6'
   'z+0.2, -x+0.45, -y+0.65'
   '-z+0.8, x+3/4, y+0.55'
   '-z+0.85, -x+0.55, y+1/2'
   'z+0.35, x+0.65, -y+0.7'
   '-z+0.95, x+0.6, -y+3/4'
   'z+1/4, -x+0.4, y+0.45'
   'y+1/2, z+0.3, x+0.6'
   '-y+0.7, -z+0.9, -x+0.4'
   '-y+3/4, z+0.2, -x+0.55'
   'y+0.45, -z+0.8, x+0.65'
   'y+0.4, -z+0.85, -x+0.45'
   '-y+0.6, z+0.35, x+3/4'
   '-y+0.65, -z+0.95, x+0.7'
   'y+0.55, z+1/4, -x+1/2'
   'y+0.45, x+3/4, -z+0.9'
   '-y+3/4, -x+0.45, z+0.3'
   '-y+0.7, -x+1/2, -z+0.8'
   'y+1/2, x+0.7, z+0.2'
   'y+0.55, -x+0.4, z+0.35'
   '-y+0.65, x+0.6, -z+0.85'
   '-y+0.6, x+0.65, z+1/4'
   'y+0.4, -x+0.55, -z+0.95'
   'x+0.65, z+0.35, -y+0.7'
   '-x+0.55, -z+0.85, y+1/2'
   '-x+0.4, z+1/4, y+0.45'
   'x+0.6, -z+0.95, -y+3/4'
   '-x+1/2, -z+0.9, -y+0.6'
   'x+0.7, z+0.3, y+0.4'
   'x+3/4, -z+0.8, y+0.55'
   '-x+0.45, z+0.2, -y+0.65'
   'z+1/4, y+0.55, -x+1/2'
   '-z+0.95, -y+0.65, x+0.7'
   'z+0.35, -y+0.6, x+3/4'
   '-z+0.85, y+0.4, -x+0.45'
   '-z+0.8, y+0.45, x+0.65'
   'z+0.2, -y+3/4, -x+0.55'
   '-z+0.9, -y+0.7, -x+0.4'
   'z+0.3, y+1/2, x+0.6'
   'x+0.6, y+0.4, z+0.4'
   '-x+0.4, -y+0.6, -z+0.6'
   '-x+0.55, -y+0.65, z+1/2'
   'x+0.65, y+0.55, -z+0.7'
   '-x+0.45, y+1/2, -z+3/4'
   'x+3/4, -y+0.7, z+0.45'
   'x+0.7, -y+3/4, -z+0.65'
   '-x+1/2, y+0.45, z+0.55'
   'z+0.4, x+0.6, y+0.4'
   '-z+0.6, -x+0.4, -y+0.6'
   'z+1/2, -x+0.55, -y+0.65'
   '-z+0.7, x+0.65, y+0.55'
   '-z+3/4, -x+0.45, y+1/2'
   'z+0.45, x+3/4, -y+0.7'
   '-z+0.65, x+0.7, -y+3/4'
   'z+0.55, -x+1/2, y+0.45'
   'y+0.4, z+0.4, x+0.6'
   '-y+0.6, -z+0.6, -x+0.4'
   '-y+0.65, z+1/2, -x+0.55'
   'y+0.55, -z+0.7, x+0.65'
   'y+1/2, -z+3/4, -x+0.45'
   '-y+0.7, z+0.45, x+3/4'
   '-y+3/4, -z+0.65, x+0.7'
   'y+0.45, z+0.55, -x+1/2'
   'y+0.55, x+0.65, -z+0.7'
   '-y+0.65, -x+0.55, z+1/2'
   '-y+0.6, -x+0.4, -z+0.6'
   'y+0.4, x+0.6, z+0.4'
   'y+0.45, -x+1/2, z+0.55'
   '-y+3/4, x+0.7, -z+0.65'
   '-y+0.7, x+3/4, z+0.45'
   'y+1/2, -x+0.45, -z+3/4'
   'x+3/4, z+0.45, -y+0.7'
   '-x+0.45, -z+3/4, y+1/2'
   '-x+1/2, z+0.55, y+0.45'
   'x+0.7, -z+0.65, -y+3/4'
   '-x+0.4, -z+0.6, -y+0.6'
   'x+0.6, z+0.4, y+0.4'
   'x+0.65, -z+0.7, y+0.55'
   '-x+0.55, z+1/2, -y+0.65'
   'z+0.55, y+0.45, -x+1/2'
   '-z+0.65, -y+3/4, x+0.7'
   'z+0.45, -y+0.7, x+3/4'
   '-z+3/4, y+1/2, -x+0.45'
   '-z+0.7, y+0.55, x+0.65'
   'z+1/2, -y+0.65, -x+0.55'
   '-z+0.6, -y+0.6, -x+0.4'
   'z+0.4, y+0.4, x+0.6'
   'x+0.6, y+1/2, z+1/2'
   '-x+0.4, -y+0.7, -z+0.7'
   '-x+0.55, -y+3/4, z+0.4'
   'x+0.65, y+0.45, -z+0.6'
   '-x+0.45, y+0.4, -z+0.65'
   'x+3/4, -y+0.6, z+0.55'
   'x+0.7, -y+0.65, -z+3/4'
   '-x+1/2, y+0.55, z+0.45'
   'z+0.4, x+0.7, y+1/2'
   '-z+0.6, -x+1/2, -y+0.7'
   'z+1/2, -x+0.45, -y+3/4'
   '-z+0.7, x+3/4, y+0.45'
   '-z+3/4, -x+0.55, y+0.4'
   'z+0.45, x+0.65, -y+0.6'
   '-z+0.65, x+0.6, -y+0.65'
   'z+0.55, -x+0.4, y+0.55'
   'y+0.4, z+1/2, x+0.7'
   '-y+0.6, -z+0.7, -x+1/2'
   '-y+0.65, z+0.4, -x+0.45'
   'y+0.55, -z+0.6, x+3/4'
   'y+1/2, -z+0.65, -x+0.55'
   '-y+0.7, z+0.55, x+0.65'
   '-y+3/4, -z+3/4, x+0.6'
   'y+0.45, z+0.45, -x+0.4'
   'y+0.55, x+3/4, -z+0.6'
   '-y+0.65, -x+0.45, z+0.4'
   '-y+0.6, -x+1/2, -z+0.7'
   'y+0.4, x+0.7, z+1/2'
   'y+0.45, -x+0.4, z+0.45'
   '-y+3/4, x+0.6, -z+3/4'
   '-y+0.7, x+0.65, z+0.55'
   'y+1/2, -x+0.55, -z+0.65'
   'x+3/4, z+0.55, -y+0.6'
   '-x+0.45, -z+0.65, y+0.4'
   '-x+1/2, z+0.45, y+0.55'
   'x+0.7, -z+3/4, -y+0.65'
   '-x+0.4, -z+0.7, -y+0.7'
   'x+0.6, z+1/2, y+1/2'
   'x+0.65, -z+0.6, y+0.45'
   '-x+0.55, z+0.4, -y+3/4'
   'z+0.55, y+0.55, -x+0.4'
   '-z+0.65, -y+0.65, x+0.6'
   'z+0.45, -y+0.6, x+0.65'
   '-z+3/4, y+0.4, -x+0.55'
   '-z+0.7, y+0.45, x+3/4'
   'z+1/2, -y+3/4, -x+0.45'
   '-z+0.6, -y+0.7, -x+1/2'
   'z+0.4, y+1/2, x+0.7'
   'x+0.7, y+0.4, z+1/2'
   '-x+1/2, -y+0.6, -z+0.7'
   '-x+0.45, -y+0.65, z+0.4'
   'x+3/4, y+0.55, -z+0.6'
   '-x+0.55, y+1/2, -z+0.65'
   'x+0.65, -y+0.7, z+0.55'
   'x+0.6, -y+3/4, -z+3/4'
   '-x+0.4, y+0.45, z+0.45'
   'z+1/2, x+0.6, y+1/2'
   '-z+0.7, -x+0.4, -y+0.7'
   'z+0.4, -x+0.55, -y+3/4'
   '-z+0.6, x+0.65, y+0.45'
   '-z+0.65, -x+0.45, y+0.4'
   'z+0.55, x+3/4, -y+0.6'
   '-z+3/4, x+0.7, -y+0.65'
   'z+0.45, -x+1/2, y+0.55'
   'y+1/2, z+0.4, x+0.7'
   '-y+0.7, -z+0.6, -x+1/2'
   '-y+3/4, z+1/2, -x+0.45'
   'y+0.45, -z+0.7, x+3/4'
   'y+0.4, -z+3/4, -x+0.55'
   '-y+0.6, z+0.45, x+0.65'
   '-y+0.65, -z+0.65, x+0.6'
   'y+0.55, z+0.55, -x+0.4'
   'y+0.45, x+0.65, -z+0.6'
   '-y+3/4, -x+0.55, z+0.4'
   '-y+0.7, -x+0.4, -z+0.7'
   'y+1/2, x+0.6, z+1/2'
   'y+0.55, -x+1/2, z+0.45'
   '-y+0.65, x+0.7, -z+3/4'
   '-y+0.6, x+3/4, z+0.55'
   'y+0.4, -x+0.45, -z+0.65'
   'x+0.65, z+0.45, -y+0.6'
   '-x+0.55, -z+3/4, y+0.4'
   '-x+0.4, z+0.55, y+0.55'
   'x+0.6, -z+0.65, -y+0.65'
   '-x+1/2, -z+0.6, -y+0.7'
   'x+0.7, z+0.4, y+1/2'
   'x+3/4, -z+0.7, y+0.45'
   '-x+0.45, z+1/2, -y+3/4'
   'z+0.45, y+0.45, -x+0.4'
   '-z+3/4, -y+3/4, x+0.6'
   'z+0.55, -y+0.7, x+0.65'
   '-z+0.65, y+1/2, -x+0.55'
   '-z+0.6, y+0.55, x+3/4'
   'z+0.4, -y+0.65, -x+0.45'
   '-z+0.7, -y+0.6, -x+1/2'
   'z+1/2, y+0.4, x+0.7'
   'x+0.7, y+1/2, z+0.4'
   '-x+1/2, -y+0.7, -z+0.6'
   '-x+0.45, -y+3/4, z+1/2'
   'x+3/4, y+0.45, -z+0.7'
   '-x+0.55, y+0.4, -z+3/4'
   'x+0.65, -y+0.6, z+0.45'
   'x+0.6, -y+0.65, -z+0.65'
   '-x+0.4, y+0.55, z+0.55'
   'z+1/2, x+0.7, y+0.4'
   '-z+0.7, -x+1/2, -y+0.6'
   'z+0.4, -x+0.45, -y+0.65'
   '-z+0.6, x+3/4, y+0.55'
   '-z+0.65, -x+0.55, y+1/2'
   'z+0.55, x+0.65, -y+0.7'
   '-z+3/4, x+0.6, -y+3/4'
   'z+0.45, -x+0.4, y+0.45'
   'y+1/2, z+1/2, x+0.6'
   '-y+0.7, -z+0.7, -x+0.4'
   '-y+3/4, z+0.4, -x+0.55'
   'y+0.45, -z+0.6, x+0.65'
   'y+0.4, -z+0.65, -x+0.45'
   '-y+0.6, z+0.55, x+3/4'
   '-y+0.65, -z+3/4, x+0.7'
   'y+0.55, z+0.45, -x+1/2'
   'y+0.45, x+3/4, -z+0.7'
   '-y+3/4, -x+0.45, z+1/2'
   '-y+0.7, -x+1/2, -z+0.6'
   'y+1/2, x+0.7, z+0.4'
   'y+0.55, -x+0.4, z+0.55'
   '-y+0.65, x+0.6, -z+0.65'
   '-y+0.6, x+0.65, z+0.45'
   'y+0.4, -x+0.55, -z+3/4'
   'x+0.65, z+0.55, -y+0.7'
   '-x+0.55, -z+0.65, y+1/2'
   '-x+0.4, z+0.45, y+0.45'
   'x+0.6, -z+3/4, -y+3/4'
   '-x+1/2, -z+0.7, -y+0.6'
   'x+0.7, z+1/2, y+0.4'
   'x+3/4, -z+0.6, y+0.55'
   '-x+0.45, z+0.4, -y+0.65'
   'z+0.45, y+0.55, -x+1/2'
   '-z+3/4, -y+0.65, x+0.7'
   'z+0.55, -y+0.6, x+3/4'
   '-z+0.65, y+0.4, -x+0.45'
   '-z+0.6, y+0.45, x+0.65'
   'z+0.4, -y+3/4, -x+0.55'
   '-z+0.7, -y+0.7, -x+0.4'
   'z+1/2, y+1/2, x+0.6'
   'x+0.6, y+0.4, z+0.6'
   '-x+0.4, -y+0.6, -z+0.4'
   '-x+0.55, -y+0.65, z+0.7'
   'x+0.65, y+0.55, -z+1/2'
   '-x+0.45, y+1/2, -z+0.55'
   'x+3/4, -y+0.7, z+0.65'
   'x+0.7, -y+3/4, -z+0.45'
   '-x+1/2, y+0.45, z+3/4'
   'z+0.6, x+0.6, y+0.4'
   '-z+0.4, -x+0.4, -y+0.6'
   'z+0.7, -x+0.55, -y+0.65'
   '-z+1/2, x+0.65, y+0.55'
   '-z+0.55, -x+0.45, y+1/2'
   'z+0.65, x+3/4, -y+0.7'
   '-z+0.45, x+0.7, -y+3/4'
   'z+3/4, -x+1/2, y+0.45'
   'y+0.4, z+0.6, x+0.6'
   '-y+0.6, -z+0.4, -x+0.4'
   '-y+0.65, z+0.7, -x+0.55'
   'y+0.55, -z+1/2, x+0.65'
   'y+1/2, -z+0.55, -x+0.45'
   '-y+0.7, z+0.65, x+3/4'
   '-y+3/4, -z+0.45, x+0.7'
   'y+0.45, z+3/4, -x+1/2'
   'y+0.55, x+0.65, -z+1/2'
   '-y+0.65, -x+0.55, z+0.7'
   '-y+0.6, -x+0.4, -z+0.4'
   'y+0.4, x+0.6, z+0.6'
   'y+0.45, -x+1/2, z+3/4'
   '-y+3/4, x+0.7, -z+0.45'
   '-y+0.7, x+3/4, z+0.65'
   'y+1/2, -x+0.45, -z+0.55'
   'x+3/4, z+0.65, -y+0.7'
   '-x+0.45, -z+0.55, y+1/2'
   '-x+1/2, z+3/4, y+0.45'
   'x+0.7, -z+0.45, -y+3/4'
   '-x+0.4, -z+0.4, -y+0.6'
   'x+0.6, z+0.6, y+0.4'
   'x+0.65, -z+1/2, y+0.55'
   '-x+0.55, z+0.7, -y+0.65'
   'z+3/4, y+0.45, -x+1/2'
   '-z+0.45, -y+3/4, x+0.7'
   'z+0.65, -y+0.7, x+3/4'
   '-z+0.55, y+1/2, -x+0.45'
   '-z+1/2, y+0.55, x+0.65'
   'z+0.7, -y+0.65, -x+0.55'
   '-z+0.4, -y+0.6, -x+0.4'
   'z+0.6, y+0.4, x+0.6'
   'x+0.6, y+1/2, z+0.7'
   '-x+0.4, -y+0.7, -z+1/2'
   '-x+0.55, -y+3/4, z+0.6'
   'x+0.65, y+0.45, -z+0.4'
   '-x+0.45, y+0.4, -z+0.45'
   'x+3/4, -y+0.6, z+3/4'
   'x+0.7, -y+0.65, -z+0.55'
   '-x+1/2, y+0.55, z+0.65'
   'z+0.6, x+0.7, y+1/2'
   '-z+0.4, -x+1/2, -y+0.7'
   'z+0.7, -x+0.45, -y+3/4'
   '-z+1/2, x+3/4, y+0.45'
   '-z+0.55, -x+0.55, y+0.4'
   'z+0.65, x+0.65, -y+0.6'
   '-z+0.45, x+0.6, -y+0.65'
   'z+3/4, -x+0.4, y+0.55'
   'y+0.4, z+0.7, x+0.7'
   '-y+0.6, -z+1/2, -x+1/2'
   '-y+0.65, z+0.6, -x+0.45'
   'y+0.55, -z+0.4, x+3/4'
   'y+1/2, -z+0.45, -x+0.55'
   '-y+0.7, z+3/4, x+0.65'
   '-y+3/4, -z+0.55, x+0.6'
   'y+0.45, z+0.65, -x+0.4'
   'y+0.55, x+3/4, -z+0.4'
   '-y+0.65, -x+0.45, z+0.6'
   '-y+0.6, -x+1/2, -z+1/2'
   'y+0.4, x+0.7, z+0.7'
   'y+0.45, -x+0.4, z+0.65'
   '-y+3/4, x+0.6, -z+0.55'
   '-y+0.7, x+0.65, z+3/4'
   'y+1/2, -x+0.55, -z+0.45'
   'x+3/4, z+3/4, -y+0.6'
   '-x+0.45, -z+0.45, y+0.4'
   '-x+1/2, z+0.65, y+0.55'
   'x+0.7, -z+0.55, -y+0.65'
   '-x+0.4, -z+1/2, -y+0.7'
   'x+0.6, z+0.7, y+1/2'
   'x+0.65, -z+0.4, y+0.45'
   '-x+0.55, z+0.6, -y+3/4'
   'z+3/4, y+0.55, -x+0.4'
   '-z+0.45, -y+0.65, x+0.6'
   'z+0.65, -y+0.6, x+0.65'
   '-z+0.55, y+0.4, -x+0.55'
   '-z+1/2, y+0.45, x+3/4'
   'z+0.7, -y+3/4, -x+0.45'
   '-z+0.4, -y+0.7, -x+1/2'
   'z+0.6, y+1/2, x+0.7'
   'x+0.7, y+0.4, z+0.7'
   '-x+1/2, -y+0.6, -z+1/2'
   '-x+0.45, -y+0.65, z+0.6'
   'x+3/4, y+0.55, -z+0.4'
   '-x+0.55, y+1/2, -z+0.45'
   'x+0.65, -y+0.7, z+3/4'
   'x+0.6, -y+3/4, -z+0.55'
   '-x+0.4, y+0.45, z+0.65'
   'z+0.7, x+0.6, y+1/2'
   '-z+1/2, -x+0.4, -y+0.7'
   'z+0.6, -x+0.55, -y+3/4'
   '-z+0.4, x+0.65, y+0.45'
   '-z+0.45, -x+0.45, y+0.4'
   'z+3/4, x+3/4, -y+0.6'
   '-z+0.55, x+0.7, -y+0.65'
   'z+0.65, -x+1/2, y+0.55'
   'y+1/2, z+0.6, x+0.7'
   '-y+0.7, -z+0.4, -x+1/2'
   '-y+3/4, z+0.7, -x+0.45'
   'y+0.45, -z+1/2, x+3/4'
   'y+0.4, -z+0.55, -x+0.55'
   '-y+0.6, z+0.65, x+0.65'
   '-y+0.65, -z+0.45, x+0.6'
   'y+0.55, z+3/4, -x+0.4'
   'y+0.45, x+0.65, -z+0.4'
   '-y+3/4, -x+0.55, z+0.6'
   '-y+0.7, -x+0.4, -z+1/2'
   'y+1/2, x+0.6, z+0.7'
   'y+0.55, -x+1/2, z+0.65'
   '-y+0.65, x+0.7, -z+0.55'
   '-y+0.6, x+3/4, z+3/4'
   'y+0.4, -x+0.45, -z+0.45'
   'x+0.65, z+0.65, -y+0.6'
   '-x+0.55, -z+0.55, y+0.4'
   '-x+0.4, z+3/4, y+0.55'
   'x+0.6, -z+0.45, -y+0.65'
   '-x+1/2, -z+0.4, -y+0.7'
   'x+0.7, z+0.6, y+1/2'
   'x+3/4, -z+1/2, y+0.45'
   '-x+0.45, z+0.7, -y+3/4'
   'z+0.65, y+0.45, -x+0.4'
   '-z+0.55, -y+3/4, x+0.6'
   'z+3/4, -y+0.7, x+0.65'
   '-z+0.45, y+1/2, -x+0.55'
   '-z+0.4, y+0.55, x+3/4'
   'z+0.6, -y+0.65, -x+0.45'
   '-z+1/2, -y+0.6, -x+1/2'
   'z+0.7, y+0.4, x+0.7'
   'x+0.7, y+1/2, z+0.6'
   '-x+1/2, -y+0.7, -z+0.4'
   '-x+0.45, -y+3/4, z+0.7'
   'x+3/4, y+0.45, -z+1/2'
   '-x+0.55, y+0.4, -z+0.55'
   'x+0.65, -y+0.6, z+0.65'
   'x+0.6, -y+0.65, -z+0.45'
   '-x+0.4, y+0.55, z+3/4'
   'z+0.7, x+0.7, y+0.4'
   '-z+1/2, -x+1/2, -y+0.6'
   'z+0.6, -x+0.45, -y+0.65'
   '-z+0.4, x+3/4, y+0.55'
   '-z+0.45, -x+0.55, y+1/2'
   'z+3/4, x+0.65, -y+0.7'
   '-z+0.55, x+0.6, -y+3/4'
   'z+0.65, -x+0.4, y+0.45'
   'y+1/2, z+0.7, x+0.6'
   '-y+0.7, -z+1/2, -x+0.4'
   '-y+3/4, z+0.6, -x+0.55'
   'y+0.45, -z+0.4, x+0.65'
   'y+0.4, -z+0.45, -x+0.45'
   '-y+0.6, z+3/4, x+3/4'
   '-y+0.65, -z+0.55, x+0.7'
   'y+0.55, z+0.65, -x+1/2'
   'y+0.45, x+3/4, -z+1/2'
   '-y+3/4, -x+0.45, z+0.7'
   '-y+0.7, -x+1/2, -z+0.4'
   'y+1/2, x+0.7, z+0.6'
   'y+0.55, -x+0.4, z+3/4'
   '-y+0.65, x+0.6, -z+0.45'
   '-y+0.6, x+0.65, z+0.65'
   'y+0.4, -x+0.55, -z+0.55'
   'x+0.65, z+3/4, -y+0.7'
   '-x+0.55, -z+0.45, y+1/2'
   '-x+0.4, z+0.65, y+0.45'
   'x+0.6, -z+0.55, -y+3/4'
   '-x+1/2, -z+1/2, -y+0.6'
   'x+0.7, z+0.7, y+0.4'
   'x+3/4, -z+0.4, y+0.55'
   '-x+0.45, z+0.6, -y+0.65'
   'z+0.65, y+0.55, -x+1/2'
   '-z+0.55, -y+0.65, x+0.7'
   'z+3/4, -y+0.6, x+3/4'
   '-z+0.45, y+0.4, -x+0.45'
   '-z+0.4, y+0.45, x+0.65'
   'z+0.6, -y+3/4, -x+0.55'
   '-z+1/2, -y+0.7, -x+0.4'
   'z+0.7, y+1/2, x+0.6'
   'x+0.6, y+0.4, z+0.8'
   '-x+0.4, -y+0.6, -z+0.2'
   '-x+0.55, -y+0.65, z+0.9'
   'x+0.65, y+0.55, -z+0.3'
   '-x+0.45, y+1/2, -z+0.35'
   'x+3/4, -y+0.7, z+0.85'
   'x+0.7, -y+3/4, -z+1/4'
   '-x+1/2, y+0.45, z+0.95'
   'z+0.8, x+0.6, y+0.4'
   '-z+0.2, -x+0.4, -y+0.6'
   'z+0.9, -x+0.55, -y+0.65'
   '-z+0.3, x+0.65, y+0.55'
   '-z+0.35, -x+0.45, y+1/2'
   'z+0.85, x+3/4, -y+0.7'
   '-z+1/4, x+0.7, -y+3/4'
   'z+0.95, -x+1/2, y+0.45'
   'y+0.4, z+0.8, x+0.6'
   '-y+0.6, -z+0.2, -x+0.4'
   '-y+0.65, z+0.9, -x+0.55'
   'y+0.55, -z+0.3, x+0.65'
   'y+1/2, -z+0.35, -x+0.45'
   '-y+0.7, z+0.85, x+3/4'
   '-y+3/4, -z+1/4, x+0.7'
   'y+0.45, z+0.95, -x+1/2'
   'y+0.55, x+0.65, -z+0.3'
   '-y+0.65, -x+0.55, z+0.9'
   '-y+0.6, -x+0.4, -z+0.2'
   'y+0.4, x+0.6, z+0.8'
   'y+0.45, -x+1/2, z+0.95'
   '-y+3/4, x+0.7, -z+1/4'
   '-y+0.7, x+3/4, z+0.85'
   'y+1/2, -x+0.45, -z+0.35'
   'x+3/4, z+0.85, -y+0.7'
   '-x+0.45, -z+0.35, y+1/2'
   '-x+1/2, z+0.95, y+0.45'
   'x+0.7, -z+1/4, -y+3/4'
   '-x+0.4, -z+0.2, -y+0.6'
   'x+0.6, z+0.8, y+0.4'
   'x+0.65, -z+0.3, y+0.55'
   '-x+0.55, z+0.9, -y+0.65'
   'z+0.95, y+0.45, -x+1/2'
   '-z+1/4, -y+3/4, x+0.7'
   'z+0.85, -y+0.7, x+3/4'
   '-z+0.35, y+1/2, -x+0.45'
   '-z+0.3, y+0.55, x+0.65'
   'z+0.9, -y+0.65, -x+0.55'
   '-z+0.2, -y+0.6, -x+0.4'
   'z+0.8, y+0.4, x+0.6'
   'x+0.6, y+1/2, z+0.9'
   '-x+0.4, -y+0.7, -z+0.3'
   '-x+0.55, -y+3/4, z+0.8'
   'x+0.65, y+0.45, -z+0.2'
   '-x+0.45, y+0.4, -z+1/4'
   'x+3/4, -y+0.6, z+0.95'
   'x+0.7, -y+0.65, -z+0.35'
   '-x+1/2, y+0.55, z+0.85'
   'z+0.8, x+0.7, y+1/2'
   '-z+0.2, -x+1/2, -y+0.7'
   'z+0.9, -x+0.45, -y+3/4'
   '-z+0.3, x+3/4, y+0.45'
   '-z+0.35, -x+0.55, y+0.4'
   'z+0.85, x+0.65, -y+0.6'
   '-z+1/4, x+0.6, -y+0.65'
   'z+0.95, -x+0.4, y+0.55'
   'y+0.4, z+0.9, x+0.7'
   '-y+0.6, -z+0.3, -x+1/2'
   '-y+0.65, z+0.8, -x+0.45'
   'y+0.55, -z+0.2, x+3/4'
   'y+1/2, -z+1/4, -x+0.55'
   '-y+0.7, z+0.95, x+0.65'
   '-y+3/4, -z+0.35, x+0.6'
   'y+0.45, z+0.85, -x+0.4'
   'y+0.55, x+3/4, -z+0.2'
   '-y+0.65, -x+0.45, z+0.8'
   '-y+0.6, -x+1/2, -z+0.3'
   'y+0.4, x+0.7, z+0.9'
   'y+0.45, -x+0.4, z+0.85'
   '-y+3/4, x+0.6, -z+0.35'
   '-y+0.7, x+0.65, z+0.95'
   'y+1/2, -x+0.55, -z+1/4'
   'x+3/4, z+0.95, -y+0.6'
   '-x+0.45, -z+1/4, y+0.4'
   '-x+1/2, z+0.85, y+0.55'
   'x+0.7, -z+0.35, -y+0.65'
   '-x+0.4, -z+0.3, -y+0.7'
   'x+0.6, z+0.9, y+1/2'
   'x+0.65, -z+0.2, y+0.45'
   '-x+0.55, z+0.8, -y+3/4'
   'z+0.95, y+0.55, -x+0.4'
   '-z+1/4, -y+0.65, x+0.6'
   'z+0.85, -y+0.6, x+0.65'
   '-z+0.35, y+0.4, -x+0.55'
   '-z+0.3, y+0.45, x+3/4'
   'z+0.9, -y+3/4, -x+0.45'
   '-z+0.2, -y+0.7, -x+1/2'
   'z+0.8, y+1/2, x+0.7'
   'x+0.7, y+0.4, z+0.9'
   '-x+1/2, -y+0.6, -z+0.3'
   '-x+0.45, -y+0.65, z+0.8'
   'x+3/4, y+0.55, -z+0.2'
   '-x+0.55, y+1/2, -z+1/4'
   'x+0.65, -y+0.7, z+0.95'
   'x+0.6, -y+3/4, -z+0.35'
   '-x+0.4, y+0.45, z+0.85'
   'z+0.9, x+0.6, y+1/2'
   '-z+0.3, -x+0.4, -y+0.7'
   'z+0.8, -x+0.55, -y+3/4'
   '-z+0.2, x+0.65, y+0.45'
   '-z+1/4, -x+0.45, y+0.4'
   'z+0.95, x+3/4, -y+0.6'
   '-z+0.35, x+0.7, -y+0.65'
   'z+0.85, -x+1/2, y+0.55'
   'y+1/2, z+0.8, x+0.7'
   '-y+0.7, -z+0.2, -x+1/2'
   '-y+3/4, z+0.9, -x+0.45'
   'y+0.45, -z+0.3, x+3/4'
   'y+0.4, -z+0.35, -x+0.55'
   '-y+0.6, z+0.85, x+0.65'
   '-y+0.65, -z+1/4, x+0.6'
   'y+0.55, z+0.95, -x+0.4'
   'y+0.45, x+0.65, -z+0.2'
   '-y+3/4, -x+0.55, z+0.8'
   '-y+0.7, -x+0.4, -z+0.3'
   'y+1/2, x+0.6, z+0.9'
   'y+0.55, -x+1/2, z+0.85'
   '-y+0.65, x+0.7, -z+0.35'
   '-y+0.6, x+3/4, z+0.95'
   'y+0.4, -x+0.45, -z+1/4'
   'x+0.65, z+0.85, -y+0.6'
   '-x+0.55, -z+0.35, y+0.4'
   '-x+0.4, z+0.95, y+0.55'
   'x+0.6, -z+1/4, -y+0.65'
   '-x+1/2, -z+0.2, -y+0.7'
   'x+0.7, z+0.8, y+1/2'
   'x+3/4, -z+0.3, y+0.45'
   '-x+0.45, z+0.9, -y+3/4'
   'z+0.85, y+0.45, -x+0.4'
   '-z+0.35, -y+3/4, x+0.6'
   'z+0.95, -y+0.7, x+0.65'
   '-z+1/4, y+1/2, -x+0.55'
   '-z+0.2, y+0.55, x+3/4'
   'z+0.8, -y+0.65, -x+0.45'
   '-z+0.3, -y+0.6, -x+1/2'
   'z+0.9, y+0.4, x+0.7'
   'x+0.7, y+1/2, z+0.8'
   '-x+1/2, -y+0.7, -z+0.2'
   '-x+0.45, -y+3/4, z+0.9'
   'x+3/4, y+0.45, -z+0.3'
   '-x+0.55, y+0.4, -z+0.35'
   'x+0.65, -y+0.6, z+0.85'
   'x+0.6, -y+0.65, -z+1/4'
   '-x+0.4, y+0.55, z+0.95'
   'z+0.9, x+0.7, y+0.4'
   '-z+0.3, -x+1/2, -y+0.6'
   'z+0.8, -x+0.45, -y+0.65'
   '-z+0.2, x+3/4, y+0.55'
   '-z+1/4, -x+0.55, y+1/2'
   'z+0.95, x+0.65, -y+0.7'
   '-z+0.35, x+0.6, -y+3/4'
   'z+0.85, -x+0.4, y+0.45'
   'y+1/2, z+0.9, x+0.6'
   '-y+0.7, -z+0.3, -x+0.4'
   '-y+3/4, z+0.8, -x+0.55'
   'y+0.45, -z+0.2, x+0.65'
   'y+0.4, -z+1/4, -x+0.45'
   '-y+0.6, z+0.95, x+3/4'
   '-y+0.65, -z+0.35, x+0.7'
   'y+0.55, z+0.85, -x+1/2'
   'y+0.45, x+3/4, -z+0.3'
   '-y+3/4, -x+0.45, z+0.9'
   '-y+0.7, -x+1/2, -z+0.2'
   'y+1/2, x+0.7, z+0.8'
   'y+0.55, -x+0.4, z+0.95'
   '-y+0.65, x+0.6, -z+1/4'
   '-y+0.6, x+0.65, z+0.85'
   'y+0.4, -x+0.55, -z+0.35'
   'x+0.65, z+0.95, -y+0.7'
   '-x+0.55, -z+1/4, y+1/2'
   '-x+0.4, z+0.85, y+0.45'
   'x+0.6, -z+0.35, -y+3/4'
   '-x+1/2, -z+0.3, -y+0.6'
   'x+0.7, z+0.9, y+0.4'
   'x+3/4, -z+0.2, y+0.55'
   '-x+0.45, z+0.8, -y+0.65'
   'z+0.85, y+0.55, -x+1/2'
   '-z+0.35, -y+0.65, x+0.7'
   'z+0.95, -y+0.6, x+3/4'
   '-z+1/4, y+0.4, -x+0.45'
   '-z+0.2, y+0.45, x+0.65'
   'z+0.8, -y+3/4, -x+0.55'
   '-z+0.3, -y+0.7, -x+0.4'
   'z+0.9, y+1/2, x+0.6'
   'x+0.6, y+0.6, z'
   '-x+0.4, -y+0.4, -z'
   '-x+0.55, -y+0.45, z+0.1'
   'x+0.65, y+3/4, -z+0.1'
   '-x+0.45, y+0.7, -z+0.15'
   'x+3/4, -y+1/2, z+0.05'
   'x+0.7, -y+0.55, -z+0.05'
   '-x+1/2, y+0.65, z+0.15'
   'z, x+0.6, y+0.6'
   '-z, -x+0.4, -y+0.4'
   'z+0.1, -x+0.55, -y+0.45'
   '-z+0.1, x+0.65, y+3/4'
   '-z+0.15, -x+0.45, y+0.7'
   'z+0.05, x+3/4, -y+1/2'
   '-z+0.05, x+0.7, -y+0.55'
   'z+0.15, -x+1/2, y+0.65'
   'y+0.6, z, x+0.6'
   '-y+0.4, -z, -x+0.4'
   '-y+0.45, z+0.1, -x+0.55'
   'y+3/4, -z+0.1, x+0.65'
   'y+0.7, -z+0.15, -x+0.45'
   '-y+1/2, z+0.05, x+3/4'
   '-y+0.55, -z+0.05, x+0.7'
   'y+0.65, z+0.15, -x+1/2'
   'y+3/4, x+0.65, -z+0.1'
   '-y+0.45, -x+0.55, z+0.1'
   '-y+0.4, -x+0.4, -z'
   'y+0.6, x+0.6, z'
   'y+0.65, -x+1/2, z+0.15'
   '-y+0.55, x+0.7, -z+0.05'
   '-y+1/2, x+3/4, z+0.05'
   'y+0.7, -x+0.45, -z+0.15'
   'x+3/4, z+0.05, -y+1/2'
   '-x+0.45, -z+0.15, y+0.7'
   '-x+1/2, z+0.15, y+0.65'
   'x+0.7, -z+0.05, -y+0.55'
   '-x+0.4, -z, -y+0.4'
   'x+0.6, z, y+0.6'
   'x+0.65, -z+0.1, y+3/4'
   '-x+0.55, z+0.1, -y+0.45'
   'z+0.15, y+0.65, -x+1/2'
   '-z+0.05, -y+0.55, x+0.7'
   'z+0.05, -y+1/2, x+3/4'
   '-z+0.15, y+0.7, -x+0.45'
   '-z+0.1, y+3/4, x+0.65'
   'z+0.1, -y+0.45, -x+0.55'
   '-z, -y+0.4, -x+0.4'
   'z, y+0.6, x+0.6'
   'x+0.6, y+0.7, z+0.1'
   '-x+0.4, -y+1/2, -z+0.1'
   '-x+0.55, -y+0.55, z'
   'x+0.65, y+0.65, -z'
   '-x+0.45, y+0.6, -z+0.05'
   'x+3/4, -y+0.4, z+0.15'
   'x+0.7, -y+0.45, -z+0.15'
   '-x+1/2, y+3/4, z+0.05'
   'z, x+0.7, y+0.7'
   '-z, -x+1/2, -y+1/2'
   'z+0.1, -x+0.45, -y+0.55'
   '-z+0.1, x+3/4, y+0.65'
   '-z+0.15, -x+0.55, y+0.6'
   'z+0.05, x+0.65, -y+0.4'
   '-z+0.05, x+0.6, -y+0.45'
   'z+0.15, -x+0.4, y+3/4'
   'y+0.6, z+0.1, x+0.7'
   '-y+0.4, -z+0.1, -x+1/2'
   '-y+0.45, z, -x+0.45'
   'y+3/4, -z, x+3/4'
   'y+0.7, -z+0.05, -x+0.55'
   '-y+1/2, z+0.15, x+0.65'
   '-y+0.55, -z+0.15, x+0.6'
   'y+0.65, z+0.05, -x+0.4'
   'y+3/4, x+3/4, -z'
   '-y+0.45, -x+0.45, z'
   '-y+0.4, -x+1/2, -z+0.1'
   'y+0.6, x+0.7, z+0.1'
   'y+0.65, -x+0.4, z+0.05'
   '-y+0.55, x+0.6, -z+0.15'
   '-y+1/2, x+0.65, z+0.15'
   'y+0.7, -x+0.55, -z+0.05'
   'x+3/4, z+0.15, -y+0.4'
   '-x+0.45, -z+0.05, y+0.6'
   '-x+1/2, z+0.05, y+3/4'
   'x+0.7, -z+0.15, -y+0.45'
   '-x+0.4, -z+0.1, -y+1/2'
   'x+0.6, z+0.1, y+0.7'
   'x+0.65, -z, y+0.65'
   '-x+0.55, z, -y+0.55'
   'z+0.15, y+3/4, -x+0.4'
   '-z+0.05, -y+0.45, x+0.6'
   'z+0.05, -y+0.4, x+0.65'
   '-z+0.15, y+0.6, -x+0.55'
   '-z+0.1, y+0.65, x+3/4'
   'z+0.1, -y+0.55, -x+0.45'
   '-z, -y+1/2, -x+1/2'
   'z, y+0.7, x+0.7'
   'x+0.7, y+0.6, z+0.1'
   '-x+1/2, -y+0.4, -z+0.1'
   '-x+0.45, -y+0.45, z'
   'x+3/4, y+3/4, -z'
   '-x+0.55, y+0.7, -z+0.05'
   'x+0.65, -y+1/2, z+0.15'
   'x+0.6, -y+0.55, -z+0.15'
   '-x+0.4, y+0.65, z+0.05'
   'z+0.1, x+0.6, y+0.7'
   '-z+0.1, -x+0.4, -y+1/2'
   'z, -x+0.55, -y+0.55'
   '-z, x+0.65, y+0.65'
   '-z+0.05, -x+0.45, y+0.6'
   'z+0.15, x+3/4, -y+0.4'
   '-z+0.15, x+0.7, -y+0.45'
   'z+0.05, -x+1/2, y+3/4'
   'y+0.7, z, x+0.7'
   '-y+1/2, -z, -x+1/2'
   '-y+0.55, z+0.1, -x+0.45'
   'y+0.65, -z+0.1, x+3/4'
   'y+0.6, -z+0.15, -x+0.55'
   '-y+0.4, z+0.05, x+0.65'
   '-y+0.45, -z+0.05, x+0.6'
   'y+3/4, z+0.15, -x+0.4'
   'y+0.65, x+0.65, -z'
   '-y+0.55, -x+0.55, z'
   '-y+1/2, -x+0.4, -z+0.1'
   'y+0.7, x+0.6, z+0.1'
   'y+3/4, -x+1/2, z+0.05'
   '-y+0.45, x+0.7, -z+0.15'
   '-y+0.4, x+3/4, z+0.15'
   'y+0.6, -x+0.45, -z+0.05'
   'x+0.65, z+0.05, -y+0.4'
   '-x+0.55, -z+0.15, y+0.6'
   '-x+0.4, z+0.15, y+3/4'
   'x+0.6, -z+0.05, -y+0.45'
   '-x+1/2, -z, -y+1/2'
   'x+0.7, z, y+0.7'
   'x+3/4, -z+0.1, y+0.65'
   '-x+0.45, z+0.1, -y+0.55'
   'z+0.05, y+0.65, -x+0.4'
   '-z+0.15, -y+0.55, x+0.6'
   'z+0.15, -y+1/2, x+0.65'
   '-z+0.05, y+0.7, -x+0.55'
   '-z, y+3/4, x+3/4'
   'z, -y+0.45, -x+0.45'
   '-z+0.1, -y+0.4, -x+1/2'
   'z+0.1, y+0.6, x+0.7'
   'x+0.7, y+0.7, z'
   '-x+1/2, -y+1/2, -z'
   '-x+0.45, -y+0.55, z+0.1'
   'x+3/4, y+0.65, -z+0.1'
   '-x+0.55, y+0.6, -z+0.15'
   'x+0.65, -y+0.4, z+0.05'
   'x+0.6, -y+0.45, -z+0.05'
   '-x+0.4, y+3/4, z+0.15'
   'z+0.1, x+0.7, y+0.6'
   '-z+0.1, -x+1/2, -y+0.4'
   'z, -x+0.45, -y+0.45'
   '-z, x+3/4, y+3/4'
   '-z+0.05, -x+0.55, y+0.7'
   'z+0.15, x+0.65, -y+1/2'
   '-z+0.15, x+0.6, -y+0.55'
   'z+0.05, -x+0.4, y+0.65'
   'y+0.7, z+0.1, x+0.6'
   '-y+1/2, -z+0.1, -x+0.4'
   '-y+0.55, z, -x+0.55'
   'y+0.65, -z, x+0.65'
   'y+0.6, -z+0.05, -x+0.45'
   '-y+0.4, z+0.15, x+3/4'
   '-y+0.45, -z+0.15, x+0.7'
   'y+3/4, z+0.05, -x+1/2'
   'y+0.65, x+3/4, -z+0.1'
   '-y+0.55, -x+0.45, z+0.1'
   '-y+1/2, -x+1/2, -z'
   'y+0.7, x+0.7, z'
   'y+3/4, -x+0.4, z+0.15'
   '-y+0.45, x+0.6, -z+0.05'
   '-y+0.4, x+0.65, z+0.05'
   'y+0.6, -x+0.55, -z+0.15'
   'x+0.65, z+0.15, -y+1/2'
   '-x+0.55, -z+0.05, y+0.7'
   '-x+0.4, z+0.05, y+0.65'
   'x+0.6, -z+0.15, -y+0.55'
   '-x+1/2, -z+0.1, -y+0.4'
   'x+0.7, z+0.1, y+0.6'
   'x+3/4, -z, y+3/4'
   '-x+0.45, z, -y+0.45'
   'z+0.05, y+3/4, -x+1/2'
   '-z+0.15, -y+0.45, x+0.7'
   'z+0.15, -y+0.4, x+3/4'
   '-z+0.05, y+0.6, -x+0.45'
   '-z, y+0.65, x+0.65'
   'z, -y+0.55, -x+0.55'
   '-z+0.1, -y+1/2, -x+0.4'
   'z+0.1, y+0.7, x+0.6'
   'x+0.6, y+0.6, z+0.2'
   '-x+0.4, -y+0.4, -z+0.8'
   '-x+0.55, -y+0.45, z+0.3'
   'x+0.65, y+3/4, -z+0.9'
   '-x+0.45, y+0.7, -z+0.95'
   'x+3/4, -y+1/2, z+1/4'
   'x+0.7, -y+0.55, -z+0.85'
   '-x+1/2, y+0.65, z+0.35'
   'z+0.2, x+0.6, y+0.6'
   '-z+0.8, -x+0.4, -y+0.4'
   'z+0.3, -x+0.55, -y+0.45'
   '-z+0.9, x+0.65, y+3/4'
   '-z+0.95, -x+0.45, y+0.7'
   'z+1/4, x+3/4, -y+1/2'
   '-z+0.85, x+0.7, -y+0.55'
   'z+0.35, -x+1/2, y+0.65'
   'y+0.6, z+0.2, x+0.6'
   '-y+0.4, -z+0.8, -x+0.4'
   '-y+0.45, z+0.3, -x+0.55'
   'y+3/4, -z+0.9, x+0.65'
   'y+0.7, -z+0.95, -x+0.45'
   '-y+1/2, z+1/4, x+3/4'
   '-y+0.55, -z+0.85, x+0.7'
   'y+0.65, z+0.35, -x+1/2'
   'y+3/4, x+0.65, -z+0.9'
   '-y+0.45, -x+0.55, z+0.3'
   '-y+0.4, -x+0.4, -z+0.8'
   'y+0.6, x+0.6, z+0.2'
   'y+0.65, -x+1/2, z+0.35'
   '-y+0.55, x+0.7, -z+0.85'
   '-y+1/2, x+3/4, z+1/4'
   'y+0.7, -x+0.45, -z+0.95'
   'x+3/4, z+1/4, -y+1/2'
   '-x+0.45, -z+0.95, y+0.7'
   '-x+1/2, z+0.35, y+0.65'
   'x+0.7, -z+0.85, -y+0.55'
   '-x+0.4, -z+0.8, -y+0.4'
   'x+0.6, z+0.2, y+0.6'
   'x+0.65, -z+0.9, y+3/4'
   '-x+0.55, z+0.3, -y+0.45'
   'z+0.35, y+0.65, -x+1/2'
   '-z+0.85, -y+0.55, x+0.7'
   'z+1/4, -y+1/2, x+3/4'
   '-z+0.95, y+0.7, -x+0.45'
   '-z+0.9, y+3/4, x+0.65'
   'z+0.3, -y+0.45, -x+0.55'
   '-z+0.8, -y+0.4, -x+0.4'
   'z+0.2, y+0.6, x+0.6'
   'x+0.6, y+0.7, z+0.3'
   '-x+0.4, -y+1/2, -z+0.9'
   '-x+0.55, -y+0.55, z+0.2'
   'x+0.65, y+0.65, -z+0.8'
   '-x+0.45, y+0.6, -z+0.85'
   'x+3/4, -y+0.4, z+0.35'
   'x+0.7, -y+0.45, -z+0.95'
   '-x+1/2, y+3/4, z+1/4'
   'z+0.2, x+0.7, y+0.7'
   '-z+0.8, -x+1/2, -y+1/2'
   'z+0.3, -x+0.45, -y+0.55'
   '-z+0.9, x+3/4, y+0.65'
   '-z+0.95, -x+0.55, y+0.6'
   'z+1/4, x+0.65, -y+0.4'
   '-z+0.85, x+0.6, -y+0.45'
   'z+0.35, -x+0.4, y+3/4'
   'y+0.6, z+0.3, x+0.7'
   '-y+0.4, -z+0.9, -x+1/2'
   '-y+0.45, z+0.2, -x+0.45'
   'y+3/4, -z+0.8, x+3/4'
   'y+0.7, -z+0.85, -x+0.55'
   '-y+1/2, z+0.35, x+0.65'
   '-y+0.55, -z+0.95, x+0.6'
   'y+0.65, z+1/4, -x+0.4'
   'y+3/4, x+3/4, -z+0.8'
   '-y+0.45, -x+0.45, z+0.2'
   '-y+0.4, -x+1/2, -z+0.9'
   'y+0.6, x+0.7, z+0.3'
   'y+0.65, -x+0.4, z+1/4'
   '-y+0.55, x+0.6, -z+0.95'
   '-y+1/2, x+0.65, z+0.35'
   'y+0.7, -x+0.55, -z+0.85'
   'x+3/4, z+0.35, -y+0.4'
   '-x+0.45, -z+0.85, y+0.6'
   '-x+1/2, z+1/4, y+3/4'
   'x+0.7, -z+0.95, -y+0.45'
   '-x+0.4, -z+0.9, -y+1/2'
   'x+0.6, z+0.3, y+0.7'
   'x+0.65, -z+0.8, y+0.65'
   '-x+0.55, z+0.2, -y+0.55'
   'z+0.35, y+3/4, -x+0.4'
   '-z+0.85, -y+0.45, x+0.6'
   'z+1/4, -y+0.4, x+0.65'
   '-z+0.95, y+0.6, -x+0.55'
   '-z+0.9, y+0.65, x+3/4'
   'z+0.3, -y+0.55, -x+0.45'
   '-z+0.8, -y+1/2, -x+1/2'
   'z+0.2, y+0.7, x+0.7'
   'x+0.7, y+0.6, z+0.3'
   '-x+1/2, -y+0.4, -z+0.9'
   '-x+0.45, -y+0.45, z+0.2'
   'x+3/4, y+3/4, -z+0.8'
   '-x+0.55, y+0.7, -z+0.85'
   'x+0.65, -y+1/2, z+0.35'
   'x+0.6, -y+0.55, -z+0.95'
   '-x+0.4, y+0.65, z+1/4'
   'z+0.3, x+0.6, y+0.7'
   '-z+0.9, -x+0.4, -y+1/2'
   'z+0.2, -x+0.55, -y+0.55'
   '-z+0.8, x+0.65, y+0.65'
   '-z+0.85, -x+0.45, y+0.6'
   'z+0.35, x+3/4, -y+0.4'
   '-z+0.95, x+0.7, -y+0.45'
   'z+1/4, -x+1/2, y+3/4'
   'y+0.7, z+0.2, x+0.7'
   '-y+1/2, -z+0.8, -x+1/2'
   '-y+0.55, z+0.3, -x+0.45'
   'y+0.65, -z+0.9, x+3/4'
   'y+0.6, -z+0.95, -x+0.55'
   '-y+0.4, z+1/4, x+0.65'
   '-y+0.45, -z+0.85, x+0.6'
   'y+3/4, z+0.35, -x+0.4'
   'y+0.65, x+0.65, -z+0.8'
   '-y+0.55, -x+0.55, z+0.2'
   '-y+1/2, -x+0.4, -z+0.9'
   'y+0.7, x+0.6, z+0.3'
   'y+3/4, -x+1/2, z+1/4'
   '-y+0.45, x+0.7, -z+0.95'
   '-y+0.4, x+3/4, z+0.35'
   'y+0.6, -x+0.45, -z+0.85'
   'x+0.65, z+1/4, -y+0.4'
   '-x+0.55, -z+0.95, y+0.6'
   '-x+0.4, z+0.35, y+3/4'
   'x+0.6, -z+0.85, -y+0.45'
   '-x+1/2, -z+0.8, -y+1/2'
   'x+0.7, z+0.2, y+0.7'
   'x+3/4, -z+0.9, y+0.65'
   '-x+0.45, z+0.3, -y+0.55'
   'z+1/4, y+0.65, -x+0.4'
   '-z+0.95, -y+0.55, x+0.6'
   'z+0.35, -y+1/2, x+0.65'
   '-z+0.85, y+0.7, -x+0.55'
   '-z+0.8, y+3/4, x+3/4'
   'z+0.2, -y+0.45, -x+0.45'
   '-z+0.9, -y+0.4, -x+1/2'
   'z+0.3, y+0.6, x+0.7'
   'x+0.7, y+0.7, z+0.2'
   '-x+1/2, -y+1/2, -z+0.8'
   '-x+0.45, -y+0.55, z+0.3'
   'x+3/4, y+0.65, -z+0.9'
   '-x+0.55, y+0.6, -z+0.95'
   'x+0.65, -y+0.4, z+1/4'
   'x+0.6, -y+0.45, -z+0.85'
   '-x+0.4, y+3/4, z+0.35'
   'z+0.3, x+0.7, y+0.6'
   '-z+0.9, -x+1/2, -y+0.4'
   'z+0.2, -x+0.45, -y+0.45'
   '-z+0.8, x+3/4, y+3/4'
   '-z+0.85, -x+0.55, y+0.7'
   'z+0.35, x+0.65, -y+1/2'
   '-z+0.95, x+0.6, -y+0.55'
   'z+1/4, -x+0.4, y+0.65'
   'y+0.7, z+0.3, x+0.6'
   '-y+1/2, -z+0.9, -x+0.4'
   '-y+0.55, z+0.2, -x+0.55'
   'y+0.65, -z+0.8, x+0.65'
   'y+0.6, -z+0.85, -x+0.45'
   '-y+0.4, z+0.35, x+3/4'
   '-y+0.45, -z+0.95, x+0.7'
   'y+3/4, z+1/4, -x+1/2'
   'y+0.65, x+3/4, -z+0.9'
   '-y+0.55, -x+0.45, z+0.3'
   '-y+1/2, -x+1/2, -z+0.8'
   'y+0.7, x+0.7, z+0.2'
   'y+3/4, -x+0.4, z+0.35'
   '-y+0.45, x+0.6, -z+0.85'
   '-y+0.4, x+0.65, z+1/4'
   'y+0.6, -x+0.55, -z+0.95'
   'x+0.65, z+0.35, -y+1/2'
   '-x+0.55, -z+0.85, y+0.7'
   '-x+0.4, z+1/4, y+0.65'
   'x+0.6, -z+0.95, -y+0.55'
   '-x+1/2, -z+0.9, -y+0.4'
   'x+0.7, z+0.3, y+0.6'
   'x+3/4, -z+0.8, y+3/4'
   '-x+0.45, z+0.2, -y+0.45'
   'z+1/4, y+3/4, -x+1/2'
   '-z+0.95, -y+0.45, x+0.7'
   'z+0.35, -y+0.4, x+3/4'
   '-z+0.85, y+0.6, -x+0.45'
   '-z+0.8, y+0.65, x+0.65'
   'z+0.2, -y+0.55, -x+0.55'
   '-z+0.9, -y+1/2, -x+0.4'
   'z+0.3, y+0.7, x+0.6'
   'x+0.6, y+0.6, z+0.4'
   '-x+0.4, -y+0.4, -z+0.6'
   '-x+0.55, -y+0.45, z+1/2'
   'x+0.65, y+3/4, -z+0.7'
   '-x+0.45, y+0.7, -z+3/4'
   'x+3/4, -y+1/2, z+0.45'
   'x+0.7, -y+0.55, -z+0.65'
   '-x+1/2, y+0.65, z+0.55'
   'z+0.4, x+0.6, y+0.6'
   '-z+0.6, -x+0.4, -y+0.4'
   'z+1/2, -x+0.55, -y+0.45'
   '-z+0.7, x+0.65, y+3/4'
   '-z+3/4, -x+0.45, y+0.7'
   'z+0.45, x+3/4, -y+1/2'
   '-z+0.65, x+0.7, -y+0.55'
   'z+0.55, -x+1/2, y+0.65'
   'y+0.6, z+0.4, x+0.6'
   '-y+0.4, -z+0.6, -x+0.4'
   '-y+0.45, z+1/2, -x+0.55'
   'y+3/4, -z+0.7, x+0.65'
   'y+0.7, -z+3/4, -x+0.45'
   '-y+1/2, z+0.45, x+3/4'
   '-y+0.55, -z+0.65, x+0.7'
   'y+0.65, z+0.55, -x+1/2'
   'y+3/4, x+0.65, -z+0.7'
   '-y+0.45, -x+0.55, z+1/2'
   '-y+0.4, -x+0.4, -z+0.6'
   'y+0.6, x+0.6, z+0.4'
   'y+0.65, -x+1/2, z+0.55'
   '-y+0.55, x+0.7, -z+0.65'
   '-y+1/2, x+3/4, z+0.45'
   'y+0.7, -x+0.45, -z+3/4'
   'x+3/4, z+0.45, -y+1/2'
   '-x+0.45, -z+3/4, y+0.7'
   '-x+1/2, z+0.55, y+0.65'
   'x+0.7, -z+0.65, -y+0.55'
   '-x+0.4, -z+0.6, -y+0.4'
   'x+0.6, z+0.4, y+0.6'
   'x+0.65, -z+0.7, y+3/4'
   '-x+0.55, z+1/2, -y+0.45'
   'z+0.55, y+0.65, -x+1/2'
   '-z+0.65, -y+0.55, x+0.7'
   'z+0.45, -y+1/2, x+3/4'
   '-z+3/4, y+0.7, -x+0.45'
   '-z+0.7, y+3/4, x+0.65'
   'z+1/2, -y+0.45, -x+0.55'
   '-z+0.6, -y+0.4, -x+0.4'
   'z+0.4, y+0.6, x+0.6'
   'x+0.6, y+0.7, z+1/2'
   '-x+0.4, -y+1/2, -z+0.7'
   '-x+0.55, -y+0.55, z+0.4'
   'x+0.65, y+0.65, -z+0.6'
   '-x+0.45, y+0.6, -z+0.65'
   'x+3/4, -y+0.4, z+0.55'
   'x+0.7, -y+0.45, -z+3/4'
   '-x+1/2, y+3/4, z+0.45'
   'z+0.4, x+0.7, y+0.7'
   '-z+0.6, -x+1/2, -y+1/2'
   'z+1/2, -x+0.45, -y+0.55'
   '-z+0.7, x+3/4, y+0.65'
   '-z+3/4, -x+0.55, y+0.6'
   'z+0.45, x+0.65, -y+0.4'
   '-z+0.65, x+0.6, -y+0.45'
   'z+0.55, -x+0.4, y+3/4'
   'y+0.6, z+1/2, x+0.7'
   '-y+0.4, -z+0.7, -x+1/2'
   '-y+0.45, z+0.4, -x+0.45'
   'y+3/4, -z+0.6, x+3/4'
   'y+0.7, -z+0.65, -x+0.55'
   '-y+1/2, z+0.55, x+0.65'
   '-y+0.55, -z+3/4, x+0.6'
   'y+0.65, z+0.45, -x+0.4'
   'y+3/4, x+3/4, -z+0.6'
   '-y+0.45, -x+0.45, z+0.4'
   '-y+0.4, -x+1/2, -z+0.7'
   'y+0.6, x+0.7, z+1/2'
   'y+0.65, -x+0.4, z+0.45'
   '-y+0.55, x+0.6, -z+3/4'
   '-y+1/2, x+0.65, z+0.55'
   'y+0.7, -x+0.55, -z+0.65'
   'x+3/4, z+0.55, -y+0.4'
   '-x+0.45, -z+0.65, y+0.6'
   '-x+1/2, z+0.45, y+3/4'
   'x+0.7, -z+3/4, -y+0.45'
   '-x+0.4, -z+0.7, -y+1/2'
   'x+0.6, z+1/2, y+0.7'
   'x+0.65, -z+0.6, y+0.65'
   '-x+0.55, z+0.4, -y+0.55'
   'z+0.55, y+3/4, -x+0.4'
   '-z+0.65, -y+0.45, x+0.6'
   'z+0.45, -y+0.4, x+0.65'
   '-z+3/4, y+0.6, -x+0.55'
   '-z+0.7, y+0.65, x+3/4'
   'z+1/2, -y+0.55, -x+0.45'
   '-z+0.6, -y+1/2, -x+1/2'
   'z+0.4, y+0.7, x+0.7'
   'x+0.7, y+0.6, z+1/2'
   '-x+1/2, -y+0.4, -z+0.7'
   '-x+0.45, -y+0.45, z+0.4'
   'x+3/4, y+3/4, -z+0.6'
   '-x+0.55, y+0.7, -z+0.65'
   'x+0.65, -y+1/2, z+0.55'
   'x+0.6, -y+0.55, -z+3/4'
   '-x+0.4, y+0.65, z+0.45'
   'z+1/2, x+0.6, y+0.7'
   '-z+0.7, -x+0.4, -y+1/2'
   'z+0.4, -x+0.55, -y+0.55'
   '-z+0.6, x+0.65, y+0.65'
   '-z+0.65, -x+0.45, y+0.6'
   'z+0.55, x+3/4, -y+0.4'
   '-z+3/4, x+0.7, -y+0.45'
   'z+0.45, -x+1/2, y+3/4'
   'y+0.7, z+0.4, x+0.7'
   '-y+1/2, -z+0.6, -x+1/2'
   '-y+0.55, z+1/2, -x+0.45'
   'y+0.65, -z+0.7, x+3/4'
   'y+0.6, -z+3/4, -x+0.55'
   '-y+0.4, z+0.45, x+0.65'
   '-y+0.45, -z+0.65, x+0.6'
   'y+3/4, z+0.55, -x+0.4'
   'y+0.65, x+0.65, -z+0.6'
   '-y+0.55, -x+0.55, z+0.4'
   '-y+1/2, -x+0.4, -z+0.7'
   'y+0.7, x+0.6, z+1/2'
   'y+3/4, -x+1/2, z+0.45'
   '-y+0.45, x+0.7, -z+3/4'
   '-y+0.4, x+3/4, z+0.55'
   'y+0.6, -x+0.45, -z+0.65'
   'x+0.65, z+0.45, -y+0.4'
   '-x+0.55, -z+3/4, y+0.6'
   '-x+0.4, z+0.55, y+3/4'
   'x+0.6, -z+0.65, -y+0.45'
   '-x+1/2, -z+0.6, -y+1/2'
   'x+0.7, z+0.4, y+0.7'
   'x+3/4, -z+0.7, y+0.65'
   '-x+0.45, z+1/2, -y+0.55'
   'z+0.45, y+0.65, -x+0.4'
   '-z+3/4, -y+0.55, x+0.6'
   'z+0.55, -y+1/2, x+0.65'
   '-z+0.65, y+0.7, -x+0.55'
   '-z+0.6, y+3/4, x+3/4'
   'z+0.4, -y+0.45, -x+0.45'
   '-z+0.7, -y+0.4, -x+1/2'
   'z+1/2, y+0.6, x+0.7'
   'x+0.7, y+0.7, z+0.4'
   '-x+1/2, -y+1/2, -z+0.6'
   '-x+0.45, -y+0.55, z+1/2'
   'x+3/4, y+0.65, -z+0.7'
   '-x+0.55, y+0.6, -z+3/4'
   'x+0.65, -y+0.4, z+0.45'
   'x+0.6, -y+0.45, -z+0.65'
   '-x+0.4, y+3/4, z+0.55'
   'z+1/2, x+0.7, y+0.6'
   '-z+0.7, -x+1/2, -y+0.4'
   'z+0.4, -x+0.45, -y+0.45'
   '-z+0.6, x+3/4, y+3/4'
   '-z+0.65, -x+0.55, y+0.7'
   'z+0.55, x+0.65, -y+1/2'
   '-z+3/4, x+0.6, -y+0.55'
   'z+0.45, -x+0.4, y+0.65'
   'y+0.7, z+1/2, x+0.6'
   '-y+1/2, -z+0.7, -x+0.4'
   '-y+0.55, z+0.4, -x+0.55'
   'y+0.65, -z+0.6, x+0.65'
   'y+0.6, -z+0.65, -x+0.45'
   '-y+0.4, z+0.55, x+3/4'
   '-y+0.45, -z+3/4, x+0.7'
   'y+3/4, z+0.45, -x+1/2'
   'y+0.65, x+3/4, -z+0.7'
   '-y+0.55, -x+0.45, z+1/2'
   '-y+1/2, -x+1/2, -z+0.6'
   'y+0.7, x+0.7, z+0.4'
   'y+3/4, -x+0.4, z+0.55'
   '-y+0.45, x+0.6, -z+0.65'
   '-y+0.4, x+0.65, z+0.45'
   'y+0.6, -x+0.55, -z+3/4'
   'x+0.65, z+0.55, -y+1/2'
   '-x+0.55, -z+0.65, y+0.7'
   '-x+0.4, z+0.45, y+0.65'
   'x+0.6, -z+3/4, -y+0.55'
   '-x+1/2, -z+0.7, -y+0.4'
   'x+0.7, z+1/2, y+0.6'
   'x+3/4, -z+0.6, y+3/4'
   '-x+0.45, z+0.4, -y+0.45'
   'z+0.45, y+3/4, -x+1/2'
   '-z+3/4, -y+0.45, x+0.7'
   'z+0.55, -y+0.4, x+3/4'
   '-z+0.65, y+0.6, -x+0.45'
   '-z+0.6, y+0.65, x+0.65'
   'z+0.4, -y+0.55, -x+0.55'
   '-z+0.7, -y+1/2, -x+0.4'
   'z+1/2, y+0.7, x+0.6'
   'x+0.6, y+0.6, z+0.6'
   '-x+0.4, -y+0.4, -z+0.4'
   '-x+0.55, -y+0.45, z+0.7'
   'x+0.65, y+3/4, -z+1/2'
   '-x+0.45, y+0.7, -z+0.55'
   'x+3/4, -y+1/2, z+0.65'
   'x+0.7, -y+0.55, -z+0.45'
   '-x+1/2, y+0.65, z+3/4'
   'z+0.6, x+0.6, y+0.6'
   '-z+0.4, -x+0.4, -y+0.4'
   'z+0.7, -x+0.55, -y+0.45'
   '-z+1/2, x+0.65, y+3/4'
   '-z+0.55, -x+0.45, y+0.7'
   'z+0.65, x+3/4, -y+1/2'
   '-z+0.45, x+0.7, -y+0.55'
   'z+3/4, -x+1/2, y+0.65'
   'y+0.6, z+0.6, x+0.6'
   '-y+0.4, -z+0.4, -x+0.4'
   '-y+0.45, z+0.7, -x+0.55'
   'y+3/4, -z+1/2, x+0.65'
   'y+0.7, -z+0.55, -x+0.45'
   '-y+1/2, z+0.65, x+3/4'
   '-y+0.55, -z+0.45, x+0.7'
   'y+0.65, z+3/4, -x+1/2'
   'y+3/4, x+0.65, -z+1/2'
   '-y+0.45, -x+0.55, z+0.7'
   '-y+0.4, -x+0.4, -z+0.4'
   'y+0.6, x+0.6, z+0.6'
   'y+0.65, -x+1/2, z+3/4'
   '-y+0.55, x+0.7, -z+0.45'
   '-y+1/2, x+3/4, z+0.65'
   'y+0.7, -x+0.45, -z+0.55'
   'x+3/4, z+0.65, -y+1/2'
   '-x+0.45, -z+0.55, y+0.7'
   '-x+1/2, z+3/4, y+0.65'
   'x+0.7, -z+0.45, -y+0.55'
   '-x+0.4, -z+0.4, -y+0.4'
   'x+0.6, z+0.6, y+0.6'
   'x+0.65, -z+1/2, y+3/4'
   '-x+0.55, z+0.7, -y+0.45'
   'z+3/4, y+0.65, -x+1/2'
   '-z+0.45, -y+0.55, x+0.7'
   'z+0.65, -y+1/2, x+3/4'
   '-z+0.55, y+0.7, -x+0.45'
   '-z+1/2, y+3/4, x+0.65'
   'z+0.7, -y+0.45, -x+0.55'
   '-z+0.4, -y+0.4, -x+0.4'
   'z+0.6, y+0.6, x+0.6'
   'x+0.6, y+0.7, z+0.7'
   '-x+0.4, -y+1/2, -z+1/2'
   '-x+0.55, -y+0.55, z+0.6'
   'x+0.65, y+0.65, -z+0.4'
   '-x+0.45, y+0.6, -z+0.45'
   'x+3/4, -y+0.4, z+3/4'
   'x+0.7, -y+0.45, -z+0.55'
   '-x+1/2, y+3/4, z+0.65'
   'z+0.6, x+0.7, y+0.7'
   '-z+0.4, -x+1/2, -y+1/2'
   'z+0.7, -x+0.45, -y+0.55'
   '-z+1/2, x+3/4, y+0.65'
   '-z+0.55, -x+0.55, y+0.6'
   'z+0.65, x+0.65, -y+0.4'
   '-z+0.45, x+0.6, -y+0.45'
   'z+3/4, -x+0.4, y+3/4'
   'y+0.6, z+0.7, x+0.7'
   '-y+0.4, -z+1/2, -x+1/2'
   '-y+0.45, z+0.6, -x+0.45'
   'y+3/4, -z+0.4, x+3/4'
   'y+0.7, -z+0.45, -x+0.55'
   '-y+1/2, z+3/4, x+0.65'
   '-y+0.55, -z+0.55, x+0.6'
   'y+0.65, z+0.65, -x+0.4'
   'y+3/4, x+3/4, -z+0.4'
   '-y+0.45, -x+0.45, z+0.6'
   '-y+0.4, -x+1/2, -z+1/2'
   'y+0.6, x+0.7, z+0.7'
   'y+0.65, -x+0.4, z+0.65'
   '-y+0.55, x+0.6, -z+0.55'
   '-y+1/2, x+0.65, z+3/4'
   'y+0.7, -x+0.55, -z+0.45'
   'x+3/4, z+3/4, -y+0.4'
   '-x+0.45, -z+0.45, y+0.6'
   '-x+1/2, z+0.65, y+3/4'
   'x+0.7, -z+0.55, -y+0.45'
   '-x+0.4, -z+1/2, -y+1/2'
   'x+0.6, z+0.7, y+0.7'
   'x+0.65, -z+0.4, y+0.65'
   '-x+0.55, z+0.6, -y+0.55'
   'z+3/4, y+3/4, -x+0.4'
   '-z+0.45, -y+0.45, x+0.6'
   'z+0.65, -y+0.4, x+0.65'
   '-z+0.55, y+0.6, -x+0.55'
   '-z+1/2, y+0.65, x+3/4'
   'z+0.7, -y+0.55, -x+0.45'
   '-z+0.4, -y+1/2, -x+1/2'
   'z+0.6, y+0.7, x+0.7'
   'x+0.7, y+0.6, z+0.7'
   '-x+1/2, -y+0.4, -z+1/2'
   '-x+0.45, -y+0.45, z+0.6'
   'x+3/4, y+3/4, -z+0.4'
   '-x+0.55, y+0.7, -z+0.45'
   'x+0.65, -y+1/2, z+3/4'
   'x+0.6, -y+0.55, -z+0.55'
   '-x+0.4, y+0.65, z+0.65'
   'z+0.7, x+0.6, y+0.7'
   '-z+1/2, -x+0.4, -y+1/2'
   'z+0.6, -x+0.55, -y+0.55'
   '-z+0.4, x+0.65, y+0.65'
   '-z+0.45, -x+0.45, y+0.6'
   'z+3/4, x+3/4, -y+0.4'
   '-z+0.55, x+0.7, -y+0.45'
   'z+0.65, -x+1/2, y+3/4'
   'y+0.7, z+0.6, x+0.7'
   '-y+1/2, -z+0.4, -x+1/2'
   '-y+0.55, z+0.7, -x+0.45'
   'y+0.65, -z+1/2, x+3/4'
   'y+0.6, -z+0.55, -x+0.55'
   '-y+0.4, z+0.65, x+0.65'
   '-y+0.45, -z+0.45, x+0.6'
   'y+3/4, z+3/4, -x+0.4'
   'y+0.65, x+0.65, -z+0.4'
   '-y+0.55, -x+0.55, z+0.6'
   '-y+1/2, -x+0.4, -z+1/2'
   'y+0.7, x+0.6, z+0.7'
   'y+3/4, -x+1/2, z+0.65'
   '-y+0.45, x+0.7, -z+0.55'
   '-y+0.4, x+3/4, z+3/4'
   'y+0.6, -x+0.45, -z+0.45'
   'x+0.65, z+0.65, -y+0.4'
   '-x+0.55, -z+0.55, y+0.6'
   '-x+0.4, z+3/4, y+3/4'
   'x+0.6, -z+0.45, -y+0.45'
   '-x+1/2, -z+0.4, -y+1/2'
   'x+0.7, z+0.6, y+0.7'
   'x+3/4, -z+1/2, y+0.65'
   '-x+0.45, z+0.7, -y+0.55'
   'z+0.65, y+0.65, -x+0.4'
   '-z+0.55, -y+0.55, x+0.6'
   'z+3/4, -y+1/2, x+0.65'
   '-z+0.45, y+0.7, -x+0.55'
   '-z+0.4, y+3/4, x+3/4'
   'z+0.6, -y+0.45, -x+0.45'
   '-z+1/2, -y+0.4, -x+1/2'
   'z+0.7, y+0.6, x+0.7'
   'x+0.7, y+0.7, z+0.6'
   '-x+1/2, -y+1/2, -z+0.4'
   '-x+0.45, -y+0.55, z+0.7'
   'x+3/4, y+0.65, -z+1/2'
   '-x+0.55, y+0.6, -z+0.55'
   'x+0.65, -y+0.4, z+0.65'
   'x+0.6, -y+0.45, -z+0.45'
   '-x+0.4, y+3/4, z+3/4'
   'z+0.7, x+0.7, y+0.6'
   '-z+1/2, -x+1/2, -y+0.4'
   'z+0.6, -x+0.45, -y+0.45'
   '-z+0.4, x+3/4, y+3/4'
   '-z+0.45, -x+0.55, y+0.7'
   'z+3/4, x+0.65, -y+1/2'
   '-z+0.55, x+0.6, -y+0.55'
   'z+0.65, -x+0.4, y+0.65'
   'y+0.7, z+0.7, x+0.6'
   '-y+1/2, -z+1/2, -x+0.4'
   '-y+0.55, z+0.6, -x+0.55'
   'y+0.65, -z+0.4, x+0.65'
   'y+0.6, -z+0.45, -x+0.45'
   '-y+0.4, z+3/4, x+3/4'
   '-y+0.45, -z+0.55, x+0.7'
   'y+3/4, z+0.65, -x+1/2'
   'y+0.65, x+3/4, -z+1/2'
   '-y+0.55, -x+0.45, z+0.7'
   '-y+1/2, -x+1/2, -z+0.4'
   'y+0.7, x+0.7, z+0.6'
   'y+3/4, -x+0.4, z+3/4'
   '-y+0.45, x+0.6, -z+0.45'
   '-y+0.4, x+0.65, z+0.65'
   'y+0.6, -x+0.55, -z+0.55'
   'x+0.65, z+3/4, -y+1/2'
   '-x+0.55, -z+0.45, y+0.7'
   '-x+0.4, z+0.65, y+0.65'
   'x+0.6, -z+0.55, -y+0.55'
   '-x+1/2, -z+1/2, -y+0.4'
   'x+0.7, z+0.7, y+0.6'
   'x+3/4, -z+0.4, y+3/4'
   '-x+0.45, z+0.6, -y+0.45'
   'z+0.65, y+3/4, -x+1/2'
   '-z+0.55, -y+0.45, x+0.7'
   'z+3/4, -y+0.4, x+3/4'
   '-z+0.45, y+0.6, -x+0.45'
   '-z+0.4, y+0.65, x+0.65'
   'z+0.6, -y+0.55, -x+0.55'
   '-z+1/2, -y+1/2, -x+0.4'
   'z+0.7, y+0.7, x+0.6'
   'x+0.6, y+0.6, z+0.8'
   '-x+0.4, -y+0.4, -z+0.2'
   '-x+0.55, -y+0.45, z+0.9'
   'x+0.65, y+3/4, -z+0.3'
   '-x+0.45, y+0.7, -z+0.35'
   'x+3/4, -y+1/2, z+0.85'
   'x+0.7, -y+0.55, -z+1/4'
   '-x+1/2, y+0.65, z+0.95'
   'z+0.8, x+0.6, y+0.6'
   '-z+0.2, -x+0.4, -y+0.4'
   'z+0.9, -x+0.55, -y+0.45'
   '-z+0.3, x+0.65, y+3/4'
   '-z+0.35, -x+0.45, y+0.7'
   'z+0.85, x+3/4, -y+1/2'
   '-z+1/4, x+0.7, -y+0.55'
   'z+0.95, -x+1/2, y+0.65'
   'y+0.6, z+0.8, x+0.6'
   '-y+0.4, -z+0.2, -x+0.4'
   '-y+0.45, z+0.9, -x+0.55'
   'y+3/4, -z+0.3, x+0.65'
   'y+0.7, -z+0.35, -x+0.45'
   '-y+1/2, z+0.85, x+3/4'
   '-y+0.55, -z+1/4, x+0.7'
   'y+0.65, z+0.95, -x+1/2'
   'y+3/4, x+0.65, -z+0.3'
   '-y+0.45, -x+0.55, z+0.9'
   '-y+0.4, -x+0.4, -z+0.2'
   'y+0.6, x+0.6, z+0.8'
   'y+0.65, -x+1/2, z+0.95'
   '-y+0.55, x+0.7, -z+1/4'
   '-y+1/2, x+3/4, z+0.85'
   'y+0.7, -x+0.45, -z+0.35'
   'x+3/4, z+0.85, -y+1/2'
   '-x+0.45, -z+0.35, y+0.7'
   '-x+1/2, z+0.95, y+0.65'
   'x+0.7, -z+1/4, -y+0.55'
   '-x+0.4, -z+0.2, -y+0.4'
   'x+0.6, z+0.8, y+0.6'
   'x+0.65, -z+0.3, y+3/4'
   '-x+0.55, z+0.9, -y+0.45'
   'z+0.95, y+0.65, -x+1/2'
   '-z+1/4, -y+0.55, x+0.7'
   'z+0.85, -y+1/2, x+3/4'
   '-z+0.35, y+0.7, -x+0.45'
   '-z+0.3, y+3/4, x+0.65'
   'z+0.9, -y+0.45, -x+0.55'
   '-z+0.2, -y+0.4, -x+0.4'
   'z+0.8, y+0.6, x+0.6'
   'x+0.6, y+0.7, z+0.9'
   '-x+0.4, -y+1/2, -z+0.3'
   '-x+0.55, -y+0.55, z+0.8'
   'x+0.65, y+0.65, -z+0.2'
   '-x+0.45, y+0.6, -z+1/4'
   'x+3/4, -y+0.4, z+0.95'
   'x+0.7, -y+0.45, -z+0.35'
   '-x+1/2, y+3/4, z+0.85'
   'z+0.8, x+0.7, y+0.7'
   '-z+0.2, -x+1/2, -y+1/2'
   'z+0.9, -x+0.45, -y+0.55'
   '-z+0.3, x+3/4, y+0.65'
   '-z+0.35, -x+0.55, y+0.6'
   'z+0.85, x+0.65, -y+0.4'
   '-z+1/4, x+0.6, -y+0.45'
   'z+0.95, -x+0.4, y+3/4'
   'y+0.6, z+0.9, x+0.7'
   '-y+0.4, -z+0.3, -x+1/2'
   '-y+0.45, z+0.8, -x+0.45'
   'y+3/4, -z+0.2, x+3/4'
   'y+0.7, -z+1/4, -x+0.55'
   '-y+1/2, z+0.95, x+0.65'
   '-y+0.55, -z+0.35, x+0.6'
   'y+0.65, z+0.85, -x+0.4'
   'y+3/4, x+3/4, -z+0.2'
   '-y+0.45, -x+0.45, z+0.8'
   '-y+0.4, -x+1/2, -z+0.3'
   'y+0.6, x+0.7, z+0.9'
   'y+0.65, -x+0.4, z+0.85'
   '-y+0.55, x+0.6, -z+0.35'
   '-y+1/2, x+0.65, z+0.95'
   'y+0.7, -x+0.55, -z+1/4'
   'x+3/4, z+0.95, -y+0.4'
   '-x+0.45, -z+1/4, y+0.6'
   '-x+1/2, z+0.85, y+3/4'
   'x+0.7, -z+0.35, -y+0.45'
   '-x+0.4, -z+0.3, -y+1/2'
   'x+0.6, z+0.9, y+0.7'
   'x+0.65, -z+0.2, y+0.65'
   '-x+0.55, z+0.8, -y+0.55'
   'z+0.95, y+3/4, -x+0.4'
   '-z+1/4, -y+0.45, x+0.6'
   'z+0.85, -y+0.4, x+0.65'
   '-z+0.35, y+0.6, -x+0.55'
   '-z+0.3, y+0.65, x+3/4'
   'z+0.9, -y+0.55, -x+0.45'
   '-z+0.2, -y+1/2, -x+1/2'
   'z+0.8, y+0.7, x+0.7'
   'x+0.7, y+0.6, z+0.9'
   '-x+1/2, -y+0.4, -z+0.3'
   '-x+0.45, -y+0.45, z+0.8'
   'x+3/4, y+3/4, -z+0.2'
   '-x+0.55, y+0.7, -z+1/4'
   'x+0.65, -y+1/2, z+0.95'
   'x+0.6, -y+0.55, -z+0.35'
   '-x+0.4, y+0.65, z+0.85'
   'z+0.9, x+0.6, y+0.7'
   '-z+0.3, -x+0.4, -y+1/2'
   'z+0.8, -x+0.55, -y+0.55'
   '-z+0.2, x+0.65, y+0.65'
   '-z+1/4, -x+0.45, y+0.6'
   'z+0.95, x+3/4, -y+0.4'
   '-z+0.35, x+0.7, -y+0.45'
   'z+0.85, -x+1/2, y+3/4'
   'y+0.7, z+0.8, x+0.7'
   '-y+1/2, -z+0.2, -x+1/2'
   '-y+0.55, z+0.9, -x+0.45'
   'y+0.65, -z+0.3, x+3/4'
   'y+0.6, -z+0.35, -x+0.55'
   '-y+0.4, z+0.85, x+0.65'
   '-y+0.45, -z+1/4, x+0.6'
   'y+3/4, z+0.95, -x+0.4'
   'y+0.65, x+0.65, -z+0.2'
   '-y+0.55, -x+0.55, z+0.8'
   '-y+1/2, -x+0.4, -z+0.3'
   'y+0.7, x+0.6, z+0.9'
   'y+3/4, -x+1/2, z+0.85'
   '-y+0.45, x+0.7, -z+0.35'
   '-y+0.4, x+3/4, z+0.95'
   'y+0.6, -x+0.45, -z+1/4'
   'x+0.65, z+0.85, -y+0.4'
   '-x+0.55, -z+0.35, y+0.6'
   '-x+0.4, z+0.95, y+3/4'
   'x+0.6, -z+1/4, -y+0.45'
   '-x+1/2, -z+0.2, -y+1/2'
   'x+0.7, z+0.8, y+0.7'
   'x+3/4, -z+0.3, y+0.65'
   '-x+0.45, z+0.9, -y+0.55'
   'z+0.85, y+0.65, -x+0.4'
   '-z+0.35, -y+0.55, x+0.6'
   'z+0.95, -y+1/2, x+0.65'
   '-z+1/4, y+0.7, -x+0.55'
   '-z+0.2, y+3/4, x+3/4'
   'z+0.8, -y+0.45, -x+0.45'
   '-z+0.3, -y+0.4, -x+1/2'
   'z+0.9, y+0.6, x+0.7'
   'x+0.7, y+0.7, z+0.8'
   '-x+1/2, -y+1/2, -z+0.2'
   '-x+0.45, -y+0.55, z+0.9'
   'x+3/4, y+0.65, -z+0.3'
   '-x+0.55, y+0.6, -z+0.35'
   'x+0.65, -y+0.4, z+0.85'
   'x+0.6, -y+0.45, -z+1/4'
   '-x+0.4, y+3/4, z+0.95'
   'z+0.9, x+0.7, y+0.6'
   '-z+0.3, -x+1/2, -y+0.4'
   'z+0.8, -x+0.45, -y+0.45'
   '-z+0.2, x+3/4, y+3/4'
   '-z+1/4, -x+0.55, y+0.7'
   'z+0.95, x+0.65, -y+1/2'
   '-z+0.35, x+0.6, -y+0.55'
   'z+0.85, -x+0.4, y+0.65'
   'y+0.7, z+0.9, x+0.6'
   '-y+1/2, -z+0.3, -x+0.4'
   '-y+0.55, z+0.8, -x+0.55'
   'y+0.65, -z+0.2, x+0.65'
   'y+0.6, -z+1/4, -x+0.45'
   '-y+0.4, z+0.95, x+3/4'
   '-y+0.45, -z+0.35, x+0.7'
   'y+3/4, z+0.85, -x+1/2'
   'y+0.65, x+3/4, -z+0.3'
   '-y+0.55, -x+0.45, z+0.9'
   '-y+1/2, -x+1/2, -z+0.2'
   'y+0.7, x+0.7, z+0.8'
   'y+3/4, -x+0.4, z+0.95'
   '-y+0.45, x+0.6, -z+1/4'
   '-y+0.4, x+0.65, z+0.85'
   'y+0.6, -x+0.55, -z+0.35'
   'x+0.65, z+0.95, -y+1/2'
   '-x+0.55, -z+1/4, y+0.7'
   '-x+0.4, z+0.85, y+0.65'
   'x+0.6, -z+0.35, -y+0.55'
   '-x+1/2, -z+0.3, -y+0.4'
   'x+0.7, z+0.9, y+0.6'
   'x+3/4, -z+0.2, y+3/4'
   '-x+0.45, z+0.8, -y+0.45'
   'z+0.85, y+3/4, -x+1/2'
   '-z+0.35, -y+0.45, x+0.7'
   'z+0.95, -y+0.4, x+3/4'
   '-z+1/4, y+0.6, -x+0.45'
   '-z+0.2, y+0.65, x+0.65'
   'z+0.8, -y+0.55, -x+0.55'
   '-z+0.3, -y+1/2, -x+0.4'
   'z+0.9, y+0.7, x+0.6'
   'x+0.6, y+0.8, z'
   '-x+0.4, -y+0.2, -z'
   '-x+0.55, -y+1/4, z+0.1'
   'x+0.65, y+0.95, -z+0.1'
   '-x+0.45, y+0.9, -z+0.15'
   'x+3/4, -y+0.3, z+0.05'
   'x+0.7, -y+0.35, -z+0.05'
   '-x+1/2, y+0.85, z+0.15'
   'z, x+0.6, y+0.8'
   '-z, -x+0.4, -y+0.2'
   'z+0.1, -x+0.55, -y+1/4'
   '-z+0.1, x+0.65, y+0.95'
   '-z+0.15, -x+0.45, y+0.9'
   'z+0.05, x+3/4, -y+0.3'
   '-z+0.05, x+0.7, -y+0.35'
   'z+0.15, -x+1/2, y+0.85'
   'y+0.8, z, x+0.6'
   '-y+0.2, -z, -x+0.4'
   '-y+1/4, z+0.1, -x+0.55'
   'y+0.95, -z+0.1, x+0.65'
   'y+0.9, -z+0.15, -x+0.45'
   '-y+0.3, z+0.05, x+3/4'
   '-y+0.35, -z+0.05, x+0.7'
   'y+0.85, z+0.15, -x+1/2'
   'y+0.95, x+0.65, -z+0.1'
   '-y+1/4, -x+0.55, z+0.1'
   '-y+0.2, -x+0.4, -z'
   'y+0.8, x+0.6, z'
   'y+0.85, -x+1/2, z+0.15'
   '-y+0.35, x+0.7, -z+0.05'
   '-y+0.3, x+3/4, z+0.05'
   'y+0.9, -x+0.45, -z+0.15'
   'x+3/4, z+0.05, -y+0.3'
   '-x+0.45, -z+0.15, y+0.9'
   '-x+1/2, z+0.15, y+0.85'
   'x+0.7, -z+0.05, -y+0.35'
   '-x+0.4, -z, -y+0.2'
   'x+0.6, z, y+0.8'
   'x+0.65, -z+0.1, y+0.95'
   '-x+0.55, z+0.1, -y+1/4'
   'z+0.15, y+0.85, -x+1/2'
   '-z+0.05, -y+0.35, x+0.7'
   'z+0.05, -y+0.3, x+3/4'
   '-z+0.15, y+0.9, -x+0.45'
   '-z+0.1, y+0.95, x+0.65'
   'z+0.1, -y+1/4, -x+0.55'
   '-z, -y+0.2, -x+0.4'
   'z, y+0.8, x+0.6'
   'x+0.6, y+0.9, z+0.1'
   '-x+0.4, -y+0.3, -z+0.1'
   '-x+0.55, -y+0.35, z'
   'x+0.65, y+0.85, -z'
   '-x+0.45, y+0.8, -z+0.05'
   'x+3/4, -y+0.2, z+0.15'
   'x+0.7, -y+1/4, -z+0.15'
   '-x+1/2, y+0.95, z+0.05'
   'z, x+0.7, y+0.9'
   '-z, -x+1/2, -y+0.3'
   'z+0.1, -x+0.45, -y+0.35'
   '-z+0.1, x+3/4, y+0.85'
   '-z+0.15, -x+0.55, y+0.8'
   'z+0.05, x+0.65, -y+0.2'
   '-z+0.05, x+0.6, -y+1/4'
   'z+0.15, -x+0.4, y+0.95'
   'y+0.8, z+0.1, x+0.7'
   '-y+0.2, -z+0.1, -x+1/2'
   '-y+1/4, z, -x+0.45'
   'y+0.95, -z, x+3/4'
   'y+0.9, -z+0.05, -x+0.55'
   '-y+0.3, z+0.15, x+0.65'
   '-y+0.35, -z+0.15, x+0.6'
   'y+0.85, z+0.05, -x+0.4'
   'y+0.95, x+3/4, -z'
   '-y+1/4, -x+0.45, z'
   '-y+0.2, -x+1/2, -z+0.1'
   'y+0.8, x+0.7, z+0.1'
   'y+0.85, -x+0.4, z+0.05'
   '-y+0.35, x+0.6, -z+0.15'
   '-y+0.3, x+0.65, z+0.15'
   'y+0.9, -x+0.55, -z+0.05'
   'x+3/4, z+0.15, -y+0.2'
   '-x+0.45, -z+0.05, y+0.8'
   '-x+1/2, z+0.05, y+0.95'
   'x+0.7, -z+0.15, -y+1/4'
   '-x+0.4, -z+0.1, -y+0.3'
   'x+0.6, z+0.1, y+0.9'
   'x+0.65, -z, y+0.85'
   '-x+0.55, z, -y+0.35'
   'z+0.15, y+0.95, -x+0.4'
   '-z+0.05, -y+1/4, x+0.6'
   'z+0.05, -y+0.2, x+0.65'
   '-z+0.15, y+0.8, -x+0.55'
   '-z+0.1, y+0.85, x+3/4'
   'z+0.1, -y+0.35, -x+0.45'
   '-z, -y+0.3, -x+1/2'
   'z, y+0.9, x+0.7'
   'x+0.7, y+0.8, z+0.1'
   '-x+1/2, -y+0.2, -z+0.1'
   '-x+0.45, -y+1/4, z'
   'x+3/4, y+0.95, -z'
   '-x+0.55, y+0.9, -z+0.05'
   'x+0.65, -y+0.3, z+0.15'
   'x+0.6, -y+0.35, -z+0.15'
   '-x+0.4, y+0.85, z+0.05'
   'z+0.1, x+0.6, y+0.9'
   '-z+0.1, -x+0.4, -y+0.3'
   'z, -x+0.55, -y+0.35'
   '-z, x+0.65, y+0.85'
   '-z+0.05, -x+0.45, y+0.8'
   'z+0.15, x+3/4, -y+0.2'
   '-z+0.15, x+0.7, -y+1/4'
   'z+0.05, -x+1/2, y+0.95'
   'y+0.9, z, x+0.7'
   '-y+0.3, -z, -x+1/2'
   '-y+0.35, z+0.1, -x+0.45'
   'y+0.85, -z+0.1, x+3/4'
   'y+0.8, -z+0.15, -x+0.55'
   '-y+0.2, z+0.05, x+0.65'
   '-y+1/4, -z+0.05, x+0.6'
   'y+0.95, z+0.15, -x+0.4'
   'y+0.85, x+0.65, -z'
   '-y+0.35, -x+0.55, z'
   '-y+0.3, -x+0.4, -z+0.1'
   'y+0.9, x+0.6, z+0.1'
   'y+0.95, -x+1/2, z+0.05'
   '-y+1/4, x+0.7, -z+0.15'
   '-y+0.2, x+3/4, z+0.15'
   'y+0.8, -x+0.45, -z+0.05'
   'x+0.65, z+0.05, -y+0.2'
   '-x+0.55, -z+0.15, y+0.8'
   '-x+0.4, z+0.15, y+0.95'
   'x+0.6, -z+0.05, -y+1/4'
   '-x+1/2, -z, -y+0.3'
   'x+0.7, z, y+0.9'
   'x+3/4, -z+0.1, y+0.85'
   '-x+0.45, z+0.1, -y+0.35'
   'z+0.05, y+0.85, -x+0.4'
   '-z+0.15, -y+0.35, x+0.6'
   'z+0.15, -y+0.3, x+0.65'
   '-z+0.05, y+0.9, -x+0.55'
   '-z, y+0.95, x+3/4'
   'z, -y+1/4, -x+0.45'
   '-z+0.1, -y+0.2, -x+1/2'
   'z+0.1, y+0.8, x+0.7'
   'x+0.7, y+0.9, z'
   '-x+1/2, -y+0.3, -z'
   '-x+0.45, -y+0.35, z+0.1'
   'x+3/4, y+0.85, -z+0.1'
   '-x+0.55, y+0.8, -z+0.15'
   'x+0.65, -y+0.2, z+0.05'
   'x+0.6, -y+1/4, -z+0.05'
   '-x+0.4, y+0.95, z+0.15'
   'z+0.1, x+0.7, y+0.8'
   '-z+0.1, -x+1/2, -y+0.2'
   'z, -x+0.45, -y+1/4'
   '-z, x+3/4, y+0.95'
   '-z+0.05, -x+0.55, y+0.9'
   'z+0.15, x+0.65, -y+0.3'
   '-z+0.15, x+0.6, -y+0.35'
   'z+0.05, -x+0.4, y+0.85'
   'y+0.9, z+0.1, x+0.6'
   '-y+0.3, -z+0.1, -x+0.4'
   '-y+0.35, z, -x+0.55'
   'y+0.85, -z, x+0.65'
   'y+0.8, -z+0.05, -x+0.45'
   '-y+0.2, z+0.15, x+3/4'
   '-y+1/4, -z+0.15, x+0.7'
   'y+0.95, z+0.05, -x+1/2'
   'y+0.85, x+3/4, -z+0.1'
   '-y+0.35, -x+0.45, z+0.1'
   '-y+0.3, -x+1/2, -z'
   'y+0.9, x+0.7, z'
   'y+0.95, -x+0.4, z+0.15'
   '-y+1/4, x+0.6, -z+0.05'
   '-y+0.2, x+0.65, z+0.05'
   'y+0.8, -x+0.55, -z+0.15'
   'x+0.65, z+0.15, -y+0.3'
   '-x+0.55, -z+0.05, y+0.9'
   '-x+0.4, z+0.05, y+0.85'
   'x+0.6, -z+0.15, -y+0.35'
   '-x+1/2, -z+0.1, -y+0.2'
   'x+0.7, z+0.1, y+0.8'
   'x+3/4, -z, y+0.95'
   '-x+0.45, z, -y+1/4'
   'z+0.05, y+0.95, -x+1/2'
   '-z+0.15, -y+1/4, x+0.7'
   'z+0.15, -y+0.2, x+3/4'
   '-z+0.05, y+0.8, -x+0.45'
   '-z, y+0.85, x+0.65'
   'z, -y+0.35, -x+0.55'
   '-z+0.1, -y+0.3, -x+0.4'
   'z+0.1, y+0.9, x+0.6'
   'x+0.6, y+0.8, z+0.2'
   '-x+0.4, -y+0.2, -z+0.8'
   '-x+0.55, -y+1/4, z+0.3'
   'x+0.65, y+0.95, -z+0.9'
   '-x+0.45, y+0.9, -z+0.95'
   'x+3/4, -y+0.3, z+1/4'
   'x+0.7, -y+0.35, -z+0.85'
   '-x+1/2, y+0.85, z+0.35'
   'z+0.2, x+0.6, y+0.8'
   '-z+0.8, -x+0.4, -y+0.2'
   'z+0.3, -x+0.55, -y+1/4'
   '-z+0.9, x+0.65, y+0.95'
   '-z+0.95, -x+0.45, y+0.9'
   'z+1/4, x+3/4, -y+0.3'
   '-z+0.85, x+0.7, -y+0.35'
   'z+0.35, -x+1/2, y+0.85'
   'y+0.8, z+0.2, x+0.6'
   '-y+0.2, -z+0.8, -x+0.4'
   '-y+1/4, z+0.3, -x+0.55'
   'y+0.95, -z+0.9, x+0.65'
   'y+0.9, -z+0.95, -x+0.45'
   '-y+0.3, z+1/4, x+3/4'
   '-y+0.35, -z+0.85, x+0.7'
   'y+0.85, z+0.35, -x+1/2'
   'y+0.95, x+0.65, -z+0.9'
   '-y+1/4, -x+0.55, z+0.3'
   '-y+0.2, -x+0.4, -z+0.8'
   'y+0.8, x+0.6, z+0.2'
   'y+0.85, -x+1/2, z+0.35'
   '-y+0.35, x+0.7, -z+0.85'
   '-y+0.3, x+3/4, z+1/4'
   'y+0.9, -x+0.45, -z+0.95'
   'x+3/4, z+1/4, -y+0.3'
   '-x+0.45, -z+0.95, y+0.9'
   '-x+1/2, z+0.35, y+0.85'
   'x+0.7, -z+0.85, -y+0.35'
   '-x+0.4, -z+0.8, -y+0.2'
   'x+0.6, z+0.2, y+0.8'
   'x+0.65, -z+0.9, y+0.95'
   '-x+0.55, z+0.3, -y+1/4'
   'z+0.35, y+0.85, -x+1/2'
   '-z+0.85, -y+0.35, x+0.7'
   'z+1/4, -y+0.3, x+3/4'
   '-z+0.95, y+0.9, -x+0.45'
   '-z+0.9, y+0.95, x+0.65'
   'z+0.3, -y+1/4, -x+0.55'
   '-z+0.8, -y+0.2, -x+0.4'
   'z+0.2, y+0.8, x+0.6'
   'x+0.6, y+0.9, z+0.3'
   '-x+0.4, -y+0.3, -z+0.9'
   '-x+0.55, -y+0.35, z+0.2'
   'x+0.65, y+0.85, -z+0.8'
   '-x+0.45, y+0.8, -z+0.85'
   'x+3/4, -y+0.2, z+0.35'
   'x+0.7, -y+1/4, -z+0.95'
   '-x+1/2, y+0.95, z+1/4'
   'z+0.2, x+0.7, y+0.9'
   '-z+0.8, -x+1/2, -y+0.3'
   'z+0.3, -x+0.45, -y+0.35'
   '-z+0.9, x+3/4, y+0.85'
   '-z+0.95, -x+0.55, y+0.8'
   'z+1/4, x+0.65, -y+0.2'
   '-z+0.85, x+0.6, -y+1/4'
   'z+0.35, -x+0.4, y+0.95'
   'y+0.8, z+0.3, x+0.7'
   '-y+0.2, -z+0.9, -x+1/2'
   '-y+1/4, z+0.2, -x+0.45'
   'y+0.95, -z+0.8, x+3/4'
   'y+0.9, -z+0.85, -x+0.55'
   '-y+0.3, z+0.35, x+0.65'
   '-y+0.35, -z+0.95, x+0.6'
   'y+0.85, z+1/4, -x+0.4'
   'y+0.95, x+3/4, -z+0.8'
   '-y+1/4, -x+0.45, z+0.2'
   '-y+0.2, -x+1/2, -z+0.9'
   'y+0.8, x+0.7, z+0.3'
   'y+0.85, -x+0.4, z+1/4'
   '-y+0.35, x+0.6, -z+0.95'
   '-y+0.3, x+0.65, z+0.35'
   'y+0.9, -x+0.55, -z+0.85'
   'x+3/4, z+0.35, -y+0.2'
   '-x+0.45, -z+0.85, y+0.8'
   '-x+1/2, z+1/4, y+0.95'
   'x+0.7, -z+0.95, -y+1/4'
   '-x+0.4, -z+0.9, -y+0.3'
   'x+0.6, z+0.3, y+0.9'
   'x+0.65, -z+0.8, y+0.85'
   '-x+0.55, z+0.2, -y+0.35'
   'z+0.35, y+0.95, -x+0.4'
   '-z+0.85, -y+1/4, x+0.6'
   'z+1/4, -y+0.2, x+0.65'
   '-z+0.95, y+0.8, -x+0.55'
   '-z+0.9, y+0.85, x+3/4'
   'z+0.3, -y+0.35, -x+0.45'
   '-z+0.8, -y+0.3, -x+1/2'
   'z+0.2, y+0.9, x+0.7'
   'x+0.7, y+0.8, z+0.3'
   '-x+1/2, -y+0.2, -z+0.9'
   '-x+0.45, -y+1/4, z+0.2'
   'x+3/4, y+0.95, -z+0.8'
   '-x+0.55, y+0.9, -z+0.85'
   'x+0.65, -y+0.3, z+0.35'
   'x+0.6, -y+0.35, -z+0.95'
   '-x+0.4, y+0.85, z+1/4'
   'z+0.3, x+0.6, y+0.9'
   '-z+0.9, -x+0.4, -y+0.3'
   'z+0.2, -x+0.55, -y+0.35'
   '-z+0.8, x+0.65, y+0.85'
   '-z+0.85, -x+0.45, y+0.8'
   'z+0.35, x+3/4, -y+0.2'
   '-z+0.95, x+0.7, -y+1/4'
   'z+1/4, -x+1/2, y+0.95'
   'y+0.9, z+0.2, x+0.7'
   '-y+0.3, -z+0.8, -x+1/2'
   '-y+0.35, z+0.3, -x+0.45'
   'y+0.85, -z+0.9, x+3/4'
   'y+0.8, -z+0.95, -x+0.55'
   '-y+0.2, z+1/4, x+0.65'
   '-y+1/4, -z+0.85, x+0.6'
   'y+0.95, z+0.35, -x+0.4'
   'y+0.85, x+0.65, -z+0.8'
   '-y+0.35, -x+0.55, z+0.2'
   '-y+0.3, -x+0.4, -z+0.9'
   'y+0.9, x+0.6, z+0.3'
   'y+0.95, -x+1/2, z+1/4'
   '-y+1/4, x+0.7, -z+0.95'
   '-y+0.2, x+3/4, z+0.35'
   'y+0.8, -x+0.45, -z+0.85'
   'x+0.65, z+1/4, -y+0.2'
   '-x+0.55, -z+0.95, y+0.8'
   '-x+0.4, z+0.35, y+0.95'
   'x+0.6, -z+0.85, -y+1/4'
   '-x+1/2, -z+0.8, -y+0.3'
   'x+0.7, z+0.2, y+0.9'
   'x+3/4, -z+0.9, y+0.85'
   '-x+0.45, z+0.3, -y+0.35'
   'z+1/4, y+0.85, -x+0.4'
   '-z+0.95, -y+0.35, x+0.6'
   'z+0.35, -y+0.3, x+0.65'
   '-z+0.85, y+0.9, -x+0.55'
   '-z+0.8, y+0.95, x+3/4'
   'z+0.2, -y+1/4, -x+0.45'
   '-z+0.9, -y+0.2, -x+1/2'
   'z+0.3, y+0.8, x+0.7'
   'x+0.7, y+0.9, z+0.2'
   '-x+1/2, -y+0.3, -z+0.8'
   '-x+0.45, -y+0.35, z+0.3'
   'x+3/4, y+0.85, -z+0.9'
   '-x+0.55, y+0.8, -z+0.95'
   'x+0.65, -y+0.2, z+1/4'
   'x+0.6, -y+1/4, -z+0.85'
   '-x+0.4, y+0.95, z+0.35'
   'z+0.3, x+0.7, y+0.8'
   '-z+0.9, -x+1/2, -y+0.2'
   'z+0.2, -x+0.45, -y+1/4'
   '-z+0.8, x+3/4, y+0.95'
   '-z+0.85, -x+0.55, y+0.9'
   'z+0.35, x+0.65, -y+0.3'
   '-z+0.95, x+0.6, -y+0.35'
   'z+1/4, -x+0.4, y+0.85'
   'y+0.9, z+0.3, x+0.6'
   '-y+0.3, -z+0.9, -x+0.4'
   '-y+0.35, z+0.2, -x+0.55'
   'y+0.85, -z+0.8, x+0.65'
   'y+0.8, -z+0.85, -x+0.45'
   '-y+0.2, z+0.35, x+3/4'
   '-y+1/4, -z+0.95, x+0.7'
   'y+0.95, z+1/4, -x+1/2'
   'y+0.85, x+3/4, -z+0.9'
   '-y+0.35, -x+0.45, z+0.3'
   '-y+0.3, -x+1/2, -z+0.8'
   'y+0.9, x+0.7, z+0.2'
   'y+0.95, -x+0.4, z+0.35'
   '-y+1/4, x+0.6, -z+0.85'
   '-y+0.2, x+0.65, z+1/4'
   'y+0.8, -x+0.55, -z+0.95'
   'x+0.65, z+0.35, -y+0.3'
   '-x+0.55, -z+0.85, y+0.9'
   '-x+0.4, z+1/4, y+0.85'
   'x+0.6, -z+0.95, -y+0.35'
   '-x+1/2, -z+0.9, -y+0.2'
   'x+0.7, z+0.3, y+0.8'
   'x+3/4, -z+0.8, y+0.95'
   '-x+0.45, z+0.2, -y+1/4'
   'z+1/4, y+0.95, -x+1/2'
   '-z+0.95, -y+1/4, x+0.7'
   'z+0.35, -y+0.2, x+3/4'
   '-z+0.85, y+0.8, -x+0.45'
   '-z+0.8, y+0.85, x+0.65'
   'z+0.2, -y+0.35, -x+0.55'
   '-z+0.9, -y+0.3, -x+0.4'
   'z+0.3, y+0.9, x+0.6'
   'x+0.6, y+0.8, z+0.4'
   '-x+0.4, -y+0.2, -z+0.6'
   '-x+0.55, -y+1/4, z+1/2'
   'x+0.65, y+0.95, -z+0.7'
   '-x+0.45, y+0.9, -z+3/4'
   'x+3/4, -y+0.3, z+0.45'
   'x+0.7, -y+0.35, -z+0.65'
   '-x+1/2, y+0.85, z+0.55'
   'z+0.4, x+0.6, y+0.8'
   '-z+0.6, -x+0.4, -y+0.2'
   'z+1/2, -x+0.55, -y+1/4'
   '-z+0.7, x+0.65, y+0.95'
   '-z+3/4, -x+0.45, y+0.9'
   'z+0.45, x+3/4, -y+0.3'
   '-z+0.65, x+0.7, -y+0.35'
   'z+0.55, -x+1/2, y+0.85'
   'y+0.8, z+0.4, x+0.6'
   '-y+0.2, -z+0.6, -x+0.4'
   '-y+1/4, z+1/2, -x+0.55'
   'y+0.95, -z+0.7, x+0.65'
   'y+0.9, -z+3/4, -x+0.45'
   '-y+0.3, z+0.45, x+3/4'
   '-y+0.35, -z+0.65, x+0.7'
   'y+0.85, z+0.55, -x+1/2'
   'y+0.95, x+0.65, -z+0.7'
   '-y+1/4, -x+0.55, z+1/2'
   '-y+0.2, -x+0.4, -z+0.6'
   'y+0.8, x+0.6, z+0.4'
   'y+0.85, -x+1/2, z+0.55'
   '-y+0.35, x+0.7, -z+0.65'
   '-y+0.3, x+3/4, z+0.45'
   'y+0.9, -x+0.45, -z+3/4'
   'x+3/4, z+0.45, -y+0.3'
   '-x+0.45, -z+3/4, y+0.9'
   '-x+1/2, z+0.55, y+0.85'
   'x+0.7, -z+0.65, -y+0.35'
   '-x+0.4, -z+0.6, -y+0.2'
   'x+0.6, z+0.4, y+0.8'
   'x+0.65, -z+0.7, y+0.95'
   '-x+0.55, z+1/2, -y+1/4'
   'z+0.55, y+0.85, -x+1/2'
   '-z+0.65, -y+0.35, x+0.7'
   'z+0.45, -y+0.3, x+3/4'
   '-z+3/4, y+0.9, -x+0.45'
   '-z+0.7, y+0.95, x+0.65'
   'z+1/2, -y+1/4, -x+0.55'
   '-z+0.6, -y+0.2, -x+0.4'
   'z+0.4, y+0.8, x+0.6'
   'x+0.6, y+0.9, z+1/2'
   '-x+0.4, -y+0.3, -z+0.7'
   '-x+0.55, -y+0.35, z+0.4'
   'x+0.65, y+0.85, -z+0.6'
   '-x+0.45, y+0.8, -z+0.65'
   'x+3/4, -y+0.2, z+0.55'
   'x+0.7, -y+1/4, -z+3/4'
   '-x+1/2, y+0.95, z+0.45'
   'z+0.4, x+0.7, y+0.9'
   '-z+0.6, -x+1/2, -y+0.3'
   'z+1/2, -x+0.45, -y+0.35'
   '-z+0.7, x+3/4, y+0.85'
   '-z+3/4, -x+0.55, y+0.8'
   'z+0.45, x+0.65, -y+0.2'
   '-z+0.65, x+0.6, -y+1/4'
   'z+0.55, -x+0.4, y+0.95'
   'y+0.8, z+1/2, x+0.7'
   '-y+0.2, -z+0.7, -x+1/2'
   '-y+1/4, z+0.4, -x+0.45'
   'y+0.95, -z+0.6, x+3/4'
   'y+0.9, -z+0.65, -x+0.55'
   '-y+0.3, z+0.55, x+0.65'
   '-y+0.35, -z+3/4, x+0.6'
   'y+0.85, z+0.45, -x+0.4'
   'y+0.95, x+3/4, -z+0.6'
   '-y+1/4, -x+0.45, z+0.4'
   '-y+0.2, -x+1/2, -z+0.7'
   'y+0.8, x+0.7, z+1/2'
   'y+0.85, -x+0.4, z+0.45'
   '-y+0.35, x+0.6, -z+3/4'
   '-y+0.3, x+0.65, z+0.55'
   'y+0.9, -x+0.55, -z+0.65'
   'x+3/4, z+0.55, -y+0.2'
   '-x+0.45, -z+0.65, y+0.8'
   '-x+1/2, z+0.45, y+0.95'
   'x+0.7, -z+3/4, -y+1/4'
   '-x+0.4, -z+0.7, -y+0.3'
   'x+0.6, z+1/2, y+0.9'
   'x+0.65, -z+0.6, y+0.85'
   '-x+0.55, z+0.4, -y+0.35'
   'z+0.55, y+0.95, -x+0.4'
   '-z+0.65, -y+1/4, x+0.6'
   'z+0.45, -y+0.2, x+0.65'
   '-z+3/4, y+0.8, -x+0.55'
   '-z+0.7, y+0.85, x+3/4'
   'z+1/2, -y+0.35, -x+0.45'
   '-z+0.6, -y+0.3, -x+1/2'
   'z+0.4, y+0.9, x+0.7'
   'x+0.7, y+0.8, z+1/2'
   '-x+1/2, -y+0.2, -z+0.7'
   '-x+0.45, -y+1/4, z+0.4'
   'x+3/4, y+0.95, -z+0.6'
   '-x+0.55, y+0.9, -z+0.65'
   'x+0.65, -y+0.3, z+0.55'
   'x+0.6, -y+0.35, -z+3/4'
   '-x+0.4, y+0.85, z+0.45'
   'z+1/2, x+0.6, y+0.9'
   '-z+0.7, -x+0.4, -y+0.3'
   'z+0.4, -x+0.55, -y+0.35'
   '-z+0.6, x+0.65, y+0.85'
   '-z+0.65, -x+0.45, y+0.8'
   'z+0.55, x+3/4, -y+0.2'
   '-z+3/4, x+0.7, -y+1/4'
   'z+0.45, -x+1/2, y+0.95'
   'y+0.9, z+0.4, x+0.7'
   '-y+0.3, -z+0.6, -x+1/2'
   '-y+0.35, z+1/2, -x+0.45'
   'y+0.85, -z+0.7, x+3/4'
   'y+0.8, -z+3/4, -x+0.55'
   '-y+0.2, z+0.45, x+0.65'
   '-y+1/4, -z+0.65, x+0.6'
   'y+0.95, z+0.55, -x+0.4'
   'y+0.85, x+0.65, -z+0.6'
   '-y+0.35, -x+0.55, z+0.4'
   '-y+0.3, -x+0.4, -z+0.7'
   'y+0.9, x+0.6, z+1/2'
   'y+0.95, -x+1/2, z+0.45'
   '-y+1/4, x+0.7, -z+3/4'
   '-y+0.2, x+3/4, z+0.55'
   'y+0.8, -x+0.45, -z+0.65'
   'x+0.65, z+0.45, -y+0.2'
   '-x+0.55, -z+3/4, y+0.8'
   '-x+0.4, z+0.55, y+0.95'
   'x+0.6, -z+0.65, -y+1/4'
   '-x+1/2, -z+0.6, -y+0.3'
   'x+0.7, z+0.4, y+0.9'
   'x+3/4, -z+0.7, y+0.85'
   '-x+0.45, z+1/2, -y+0.35'
   'z+0.45, y+0.85, -x+0.4'
   '-z+3/4, -y+0.35, x+0.6'
   'z+0.55, -y+0.3, x+0.65'
   '-z+0.65, y+0.9, -x+0.55'
   '-z+0.6, y+0.95, x+3/4'
   'z+0.4, -y+1/4, -x+0.45'
   '-z+0.7, -y+0.2, -x+1/2'
   'z+1/2, y+0.8, x+0.7'
   'x+0.7, y+0.9, z+0.4'
   '-x+1/2, -y+0.3, -z+0.6'
   '-x+0.45, -y+0.35, z+1/2'
   'x+3/4, y+0.85, -z+0.7'
   '-x+0.55, y+0.8, -z+3/4'
   'x+0.65, -y+0.2, z+0.45'
   'x+0.6, -y+1/4, -z+0.65'
   '-x+0.4, y+0.95, z+0.55'
   'z+1/2, x+0.7, y+0.8'
   '-z+0.7, -x+1/2, -y+0.2'
   'z+0.4, -x+0.45, -y+1/4'
   '-z+0.6, x+3/4, y+0.95'
   '-z+0.65, -x+0.55, y+0.9'
   'z+0.55, x+0.65, -y+0.3'
   '-z+3/4, x+0.6, -y+0.35'
   'z+0.45, -x+0.4, y+0.85'
   'y+0.9, z+1/2, x+0.6'
   '-y+0.3, -z+0.7, -x+0.4'
   '-y+0.35, z+0.4, -x+0.55'
   'y+0.85, -z+0.6, x+0.65'
   'y+0.8, -z+0.65, -x+0.45'
   '-y+0.2, z+0.55, x+3/4'
   '-y+1/4, -z+3/4, x+0.7'
   'y+0.95, z+0.45, -x+1/2'
   'y+0.85, x+3/4, -z+0.7'
   '-y+0.35, -x+0.45, z+1/2'
   '-y+0.3, -x+1/2, -z+0.6'
   'y+0.9, x+0.7, z+0.4'
   'y+0.95, -x+0.4, z+0.55'
   '-y+1/4, x+0.6, -z+0.65'
   '-y+0.2, x+0.65, z+0.45'
   'y+0.8, -x+0.55, -z+3/4'
   'x+0.65, z+0.55, -y+0.3'
   '-x+0.55, -z+0.65, y+0.9'
   '-x+0.4, z+0.45, y+0.85'
   'x+0.6, -z+3/4, -y+0.35'
   '-x+1/2, -z+0.7, -y+0.2'
   'x+0.7, z+1/2, y+0.8'
   'x+3/4, -z+0.6, y+0.95'
   '-x+0.45, z+0.4, -y+1/4'
   'z+0.45, y+0.95, -x+1/2'
   '-z+3/4, -y+1/4, x+0.7'
   'z+0.55, -y+0.2, x+3/4'
   '-z+0.65, y+0.8, -x+0.45'
   '-z+0.6, y+0.85, x+0.65'
   'z+0.4, -y+0.35, -x+0.55'
   '-z+0.7, -y+0.3, -x+0.4'
   'z+1/2, y+0.9, x+0.6'
   'x+0.6, y+0.8, z+0.6'
   '-x+0.4, -y+0.2, -z+0.4'
   '-x+0.55, -y+1/4, z+0.7'
   'x+0.65, y+0.95, -z+1/2'
   '-x+0.45, y+0.9, -z+0.55'
   'x+3/4, -y+0.3, z+0.65'
   'x+0.7, -y+0.35, -z+0.45'
   '-x+1/2, y+0.85, z+3/4'
   'z+0.6, x+0.6, y+0.8'
   '-z+0.4, -x+0.4, -y+0.2'
   'z+0.7, -x+0.55, -y+1/4'
   '-z+1/2, x+0.65, y+0.95'
   '-z+0.55, -x+0.45, y+0.9'
   'z+0.65, x+3/4, -y+0.3'
   '-z+0.45, x+0.7, -y+0.35'
   'z+3/4, -x+1/2, y+0.85'
   'y+0.8, z+0.6, x+0.6'
   '-y+0.2, -z+0.4, -x+0.4'
   '-y+1/4, z+0.7, -x+0.55'
   'y+0.95, -z+1/2, x+0.65'
   'y+0.9, -z+0.55, -x+0.45'
   '-y+0.3, z+0.65, x+3/4'
   '-y+0.35, -z+0.45, x+0.7'
   'y+0.85, z+3/4, -x+1/2'
   'y+0.95, x+0.65, -z+1/2'
   '-y+1/4, -x+0.55, z+0.7'
   '-y+0.2, -x+0.4, -z+0.4'
   'y+0.8, x+0.6, z+0.6'
   'y+0.85, -x+1/2, z+3/4'
   '-y+0.35, x+0.7, -z+0.45'
   '-y+0.3, x+3/4, z+0.65'
   'y+0.9, -x+0.45, -z+0.55'
   'x+3/4, z+0.65, -y+0.3'
   '-x+0.45, -z+0.55, y+0.9'
   '-x+1/2, z+3/4, y+0.85'
   'x+0.7, -z+0.45, -y+0.35'
   '-x+0.4, -z+0.4, -y+0.2'
   'x+0.6, z+0.6, y+0.8'
   'x+0.65, -z+1/2, y+0.95'
   '-x+0.55, z+0.7, -y+1/4'
   'z+3/4, y+0.85, -x+1/2'
   '-z+0.45, -y+0.35, x+0.7'
   'z+0.65, -y+0.3, x+3/4'
   '-z+0.55, y+0.9, -x+0.45'
   '-z+1/2, y+0.95, x+0.65'
   'z+0.7, -y+1/4, -x+0.55'
   '-z+0.4, -y+0.2, -x+0.4'
   'z+0.6, y+0.8, x+0.6'
   'x+0.6, y+0.9, z+0.7'
   '-x+0.4, -y+0.3, -z+1/2'
   '-x+0.55, -y+0.35, z+0.6'
   'x+0.65, y+0.85, -z+0.4'
   '-x+0.45, y+0.8, -z+0.45'
   'x+3/4, -y+0.2, z+3/4'
   'x+0.7, -y+1/4, -z+0.55'
   '-x+1/2, y+0.95, z+0.65'
   'z+0.6, x+0.7, y+0.9'
   '-z+0.4, -x+1/2, -y+0.3'
   'z+0.7, -x+0.45, -y+0.35'
   '-z+1/2, x+3/4, y+0.85'
   '-z+0.55, -x+0.55, y+0.8'
   'z+0.65, x+0.65, -y+0.2'
   '-z+0.45, x+0.6, -y+1/4'
   'z+3/4, -x+0.4, y+0.95'
   'y+0.8, z+0.7, x+0.7'
   '-y+0.2, -z+1/2, -x+1/2'
   '-y+1/4, z+0.6, -x+0.45'
   'y+0.95, -z+0.4, x+3/4'
   'y+0.9, -z+0.45, -x+0.55'
   '-y+0.3, z+3/4, x+0.65'
   '-y+0.35, -z+0.55, x+0.6'
   'y+0.85, z+0.65, -x+0.4'
   'y+0.95, x+3/4, -z+0.4'
   '-y+1/4, -x+0.45, z+0.6'
   '-y+0.2, -x+1/2, -z+1/2'
   'y+0.8, x+0.7, z+0.7'
   'y+0.85, -x+0.4, z+0.65'
   '-y+0.35, x+0.6, -z+0.55'
   '-y+0.3, x+0.65, z+3/4'
   'y+0.9, -x+0.55, -z+0.45'
   'x+3/4, z+3/4, -y+0.2'
   '-x+0.45, -z+0.45, y+0.8'
   '-x+1/2, z+0.65, y+0.95'
   'x+0.7, -z+0.55, -y+1/4'
   '-x+0.4, -z+1/2, -y+0.3'
   'x+0.6, z+0.7, y+0.9'
   'x+0.65, -z+0.4, y+0.85'
   '-x+0.55, z+0.6, -y+0.35'
   'z+3/4, y+0.95, -x+0.4'
   '-z+0.45, -y+1/4, x+0.6'
   'z+0.65, -y+0.2, x+0.65'
   '-z+0.55, y+0.8, -x+0.55'
   '-z+1/2, y+0.85, x+3/4'
   'z+0.7, -y+0.35, -x+0.45'
   '-z+0.4, -y+0.3, -x+1/2'
   'z+0.6, y+0.9, x+0.7'
   'x+0.7, y+0.8, z+0.7'
   '-x+1/2, -y+0.2, -z+1/2'
   '-x+0.45, -y+1/4, z+0.6'
   'x+3/4, y+0.95, -z+0.4'
   '-x+0.55, y+0.9, -z+0.45'
   'x+0.65, -y+0.3, z+3/4'
   'x+0.6, -y+0.35, -z+0.55'
   '-x+0.4, y+0.85, z+0.65'
   'z+0.7, x+0.6, y+0.9'
   '-z+1/2, -x+0.4, -y+0.3'
   'z+0.6, -x+0.55, -y+0.35'
   '-z+0.4, x+0.65, y+0.85'
   '-z+0.45, -x+0.45, y+0.8'
   'z+3/4, x+3/4, -y+0.2'
   '-z+0.55, x+0.7, -y+1/4'
   'z+0.65, -x+1/2, y+0.95'
   'y+0.9, z+0.6, x+0.7'
   '-y+0.3, -z+0.4, -x+1/2'
   '-y+0.35, z+0.7, -x+0.45'
   'y+0.85, -z+1/2, x+3/4'
   'y+0.8, -z+0.55, -x+0.55'
   '-y+0.2, z+0.65, x+0.65'
   '-y+1/4, -z+0.45, x+0.6'
   'y+0.95, z+3/4, -x+0.4'
   'y+0.85, x+0.65, -z+0.4'
   '-y+0.35, -x+0.55, z+0.6'
   '-y+0.3, -x+0.4, -z+1/2'
   'y+0.9, x+0.6, z+0.7'
   'y+0.95, -x+1/2, z+0.65'
   '-y+1/4, x+0.7, -z+0.55'
   '-y+0.2, x+3/4, z+3/4'
   'y+0.8, -x+0.45, -z+0.45'
   'x+0.65, z+0.65, -y+0.2'
   '-x+0.55, -z+0.55, y+0.8'
   '-x+0.4, z+3/4, y+0.95'
   'x+0.6, -z+0.45, -y+1/4'
   '-x+1/2, -z+0.4, -y+0.3'
   'x+0.7, z+0.6, y+0.9'
   'x+3/4, -z+1/2, y+0.85'
   '-x+0.45, z+0.7, -y+0.35'
   'z+0.65, y+0.85, -x+0.4'
   '-z+0.55, -y+0.35, x+0.6'
   'z+3/4, -y+0.3, x+0.65'
   '-z+0.45, y+0.9, -x+0.55'
   '-z+0.4, y+0.95, x+3/4'
   'z+0.6, -y+1/4, -x+0.45'
   '-z+1/2, -y+0.2, -x+1/2'
   'z+0.7, y+0.8, x+0.7'
   'x+0.7, y+0.9, z+0.6'
   '-x+1/2, -y+0.3, -z+0.4'
   '-x+0.45, -y+0.35, z+0.7'
   'x+3/4, y+0.85, -z+1/2'
   '-x+0.55, y+0.8, -z+0.55'
   'x+0.65, -y+0.2, z+0.65'
   'x+0.6, -y+1/4, -z+0.45'
   '-x+0.4, y+0.95, z+3/4'
   'z+0.7, x+0.7, y+0.8'
   '-z+1/2, -x+1/2, -y+0.2'
   'z+0.6, -x+0.45, -y+1/4'
   '-z+0.4, x+3/4, y+0.95'
   '-z+0.45, -x+0.55, y+0.9'
   'z+3/4, x+0.65, -y+0.3'
   '-z+0.55, x+0.6, -y+0.35'
   'z+0.65, -x+0.4, y+0.85'
   'y+0.9, z+0.7, x+0.6'
   '-y+0.3, -z+1/2, -x+0.4'
   '-y+0.35, z+0.6, -x+0.55'
   'y+0.85, -z+0.4, x+0.65'
   'y+0.8, -z+0.45, -x+0.45'
   '-y+0.2, z+3/4, x+3/4'
   '-y+1/4, -z+0.55, x+0.7'
   'y+0.95, z+0.65, -x+1/2'
   'y+0.85, x+3/4, -z+1/2'
   '-y+0.35, -x+0.45, z+0.7'
   '-y+0.3, -x+1/2, -z+0.4'
   'y+0.9, x+0.7, z+0.6'
   'y+0.95, -x+0.4, z+3/4'
   '-y+1/4, x+0.6, -z+0.45'
   '-y+0.2, x+0.65, z+0.65'
   'y+0.8, -x+0.55, -z+0.55'
   'x+0.65, z+3/4, -y+0.3'
   '-x+0.55, -z+0.45, y+0.9'
   '-x+0.4, z+0.65, y+0.85'
   'x+0.6, -z+0.55, -y+0.35'
   '-x+1/2, -z+1/2, -y+0.2'
   'x+0.7, z+0.7, y+0.8'
   'x+3/4, -z+0.4, y+0.95'
   '-x+0.45, z+0.6, -y+1/4'
   'z+0.65, y+0.95, -x+1/2'
   '-z+0.55, -y+1/4, x+0.7'
   'z+3/4, -y+0.2, x+3/4'
   '-z+0.45, y+0.8, -x+0.45'
   '-z+0.4, y+0.85, x+0.65'
   'z+0.6, -y+0.35, -x+0.55'
   '-z+1/2, -y+0.3, -x+0.4'
   'z+0.7, y+0.9, x+0.6'
   'x+0.6, y+0.8, z+0.8'
   '-x+0.4, -y+0.2, -z+0.2'
   '-x+0.55, -y+1/4, z+0.9'
   'x+0.65, y+0.95, -z+0.3'
   '-x+0.45, y+0.9, -z+0.35'
   'x+3/4, -y+0.3, z+0.85'
   'x+0.7, -y+0.35, -z+1/4'
   '-x+1/2, y+0.85, z+0.95'
   'z+0.8, x+0.6, y+0.8'
   '-z+0.2, -x+0.4, -y+0.2'
   'z+0.9, -x+0.55, -y+1/4'
   '-z+0.3, x+0.65, y+0.95'
   '-z+0.35, -x+0.45, y+0.9'
   'z+0.85, x+3/4, -y+0.3'
   '-z+1/4, x+0.7, -y+0.35'
   'z+0.95, -x+1/2, y+0.85'
   'y+0.8, z+0.8, x+0.6'
   '-y+0.2, -z+0.2, -x+0.4'
   '-y+1/4, z+0.9, -x+0.55'
   'y+0.95, -z+0.3, x+0.65'
   'y+0.9, -z+0.35, -x+0.45'
   '-y+0.3, z+0.85, x+3/4'
   '-y+0.35, -z+1/4, x+0.7'
   'y+0.85, z+0.95, -x+1/2'
   'y+0.95, x+0.65, -z+0.3'
   '-y+1/4, -x+0.55, z+0.9'
   '-y+0.2, -x+0.4, -z+0.2'
   'y+0.8, x+0.6, z+0.8'
   'y+0.85, -x+1/2, z+0.95'
   '-y+0.35, x+0.7, -z+1/4'
   '-y+0.3, x+3/4, z+0.85'
   'y+0.9, -x+0.45, -z+0.35'
   'x+3/4, z+0.85, -y+0.3'
   '-x+0.45, -z+0.35, y+0.9'
   '-x+1/2, z+0.95, y+0.85'
   'x+0.7, -z+1/4, -y+0.35'
   '-x+0.4, -z+0.2, -y+0.2'
   'x+0.6, z+0.8, y+0.8'
   'x+0.65, -z+0.3, y+0.95'
   '-x+0.55, z+0.9, -y+1/4'
   'z+0.95, y+0.85, -x+1/2'
   '-z+1/4, -y+0.35, x+0.7'
   'z+0.85, -y+0.3, x+3/4'
   '-z+0.35, y+0.9, -x+0.45'
   '-z+0.3, y+0.95, x+0.65'
   'z+0.9, -y+1/4, -x+0.55'
   '-z+0.2, -y+0.2, -x+0.4'
   'z+0.8, y+0.8, x+0.6'
   'x+0.6, y+0.9, z+0.9'
   '-x+0.4, -y+0.3, -z+0.3'
   '-x+0.55, -y+0.35, z+0.8'
   'x+0.65, y+0.85, -z+0.2'
   '-x+0.45, y+0.8, -z+1/4'
   'x+3/4, -y+0.2, z+0.95'
   'x+0.7, -y+1/4, -z+0.35'
   '-x+1/2, y+0.95, z+0.85'
   'z+0.8, x+0.7, y+0.9'
   '-z+0.2, -x+1/2, -y+0.3'
   'z+0.9, -x+0.45, -y+0.35'
   '-z+0.3, x+3/4, y+0.85'
   '-z+0.35, -x+0.55, y+0.8'
   'z+0.85, x+0.65, -y+0.2'
   '-z+1/4, x+0.6, -y+1/4'
   'z+0.95, -x+0.4, y+0.95'
   'y+0.8, z+0.9, x+0.7'
   '-y+0.2, -z+0.3, -x+1/2'
   '-y+1/4, z+0.8, -x+0.45'
   'y+0.95, -z+0.2, x+3/4'
   'y+0.9, -z+1/4, -x+0.55'
   '-y+0.3, z+0.95, x+0.65'
   '-y+0.35, -z+0.35, x+0.6'
   'y+0.85, z+0.85, -x+0.4'
   'y+0.95, x+3/4, -z+0.2'
   '-y+1/4, -x+0.45, z+0.8'
   '-y+0.2, -x+1/2, -z+0.3'
   'y+0.8, x+0.7, z+0.9'
   'y+0.85, -x+0.4, z+0.85'
   '-y+0.35, x+0.6, -z+0.35'
   '-y+0.3, x+0.65, z+0.95'
   'y+0.9, -x+0.55, -z+1/4'
   'x+3/4, z+0.95, -y+0.2'
   '-x+0.45, -z+1/4, y+0.8'
   '-x+1/2, z+0.85, y+0.95'
   'x+0.7, -z+0.35, -y+1/4'
   '-x+0.4, -z+0.3, -y+0.3'
   'x+0.6, z+0.9, y+0.9'
   'x+0.65, -z+0.2, y+0.85'
   '-x+0.55, z+0.8, -y+0.35'
   'z+0.95, y+0.95, -x+0.4'
   '-z+1/4, -y+1/4, x+0.6'
   'z+0.85, -y+0.2, x+0.65'
   '-z+0.35, y+0.8, -x+0.55'
   '-z+0.3, y+0.85, x+3/4'
   'z+0.9, -y+0.35, -x+0.45'
   '-z+0.2, -y+0.3, -x+1/2'
   'z+0.8, y+0.9, x+0.7'
   'x+0.7, y+0.8, z+0.9'
   '-x+1/2, -y+0.2, -z+0.3'
   '-x+0.45, -y+1/4, z+0.8'
   'x+3/4, y+0.95, -z+0.2'
   '-x+0.55, y+0.9, -z+1/4'
   'x+0.65, -y+0.3, z+0.95'
   'x+0.6, -y+0.35, -z+0.35'
   '-x+0.4, y+0.85, z+0.85'
   'z+0.9, x+0.6, y+0.9'
   '-z+0.3, -x+0.4, -y+0.3'
   'z+0.8, -x+0.55, -y+0.35'
   '-z+0.2, x+0.65, y+0.85'
   '-z+1/4, -x+0.45, y+0.8'
   'z+0.95, x+3/4, -y+0.2'
   '-z+0.35, x+0.7, -y+1/4'
   'z+0.85, -x+1/2, y+0.95'
   'y+0.9, z+0.8, x+0.7'
   '-y+0.3, -z+0.2, -x+1/2'
   '-y+0.35, z+0.9, -x+0.45'
   'y+0.85, -z+0.3, x+3/4'
   'y+0.8, -z+0.35, -x+0.55'
   '-y+0.2, z+0.85, x+0.65'
   '-y+1/4, -z+1/4, x+0.6'
   'y+0.95, z+0.95, -x+0.4'
   'y+0.85, x+0.65, -z+0.2'
   '-y+0.35, -x+0.55, z+0.8'
   '-y+0.3, -x+0.4, -z+0.3'
   'y+0.9, x+0.6, z+0.9'
   'y+0.95, -x+1/2, z+0.85'
   '-y+1/4, x+0.7, -z+0.35'
   '-y+0.2, x+3/4, z+0.95'
   'y+0.8, -x+0.45, -z+1/4'
   'x+0.65, z+0.85, -y+0.2'
   '-x+0.55, -z+0.35, y+0.8'
   '-x+0.4, z+0.95, y+0.95'
   'x+0.6, -z+1/4, -y+1/4'
   '-x+1/2, -z+0.2, -y+0.3'
   'x+0.7, z+0.8, y+0.9'
   'x+3/4, -z+0.3, y+0.85'
   '-x+0.45, z+0.9, -y+0.35'
   'z+0.85, y+0.85, -x+0.4'
   '-z+0.35, -y+0.35, x+0.6'
   'z+0.95, -y+0.3, x+0.65'
   '-z+1/4, y+0.9, -x+0.55'
   '-z+0.2, y+0.95, x+3/4'
   'z+0.8, -y+1/4, -x+0.45'
   '-z+0.3, -y+0.2, -x+1/2'
   'z+0.9, y+0.8, x+0.7'
   'x+0.7, y+0.9, z+0.8'
   '-x+1/2, -y+0.3, -z+0.2'
   '-x+0.45, -y+0.35, z+0.9'
   'x+3/4, y+0.85, -z+0.3'
   '-x+0.55, y+0.8, -z+0.35'
   'x+0.65, -y+0.2, z+0.85'
   'x+0.6, -y+1/4, -z+1/4'
   '-x+0.4, y+0.95, z+0.95'
   'z+0.9, x+0.7, y+0.8'
   '-z+0.3, -x+1/2, -y+0.2'
   'z+0.8, -x+0.45, -y+1/4'
   '-z+0.2, x+3/4, y+0.95'
   '-z+1/4, -x+0.55, y+0.9'
   'z+0.95, x+0.65, -y+0.3'
   '-z+0.35, x+0.6, -y+0.35'
   'z+0.85, -x+0.4, y+0.85'
   'y+0.9, z+0.9, x+0.6'
   '-y+0.3, -z+0.3, -x+0.4'
   '-y+0.35, z+0.8, -x+0.55'
   'y+0.85, -z+0.2, x+0.65'
   'y+0.8, -z+1/4, -x+0.45'
   '-y+0.2, z+0.95, x+3/4'
   '-y+1/4, -z+0.35, x+0.7'
   'y+0.95, z+0.85, -x+1/2'
   'y+0.85, x+3/4, -z+0.3'
   '-y+0.35, -x+0.45, z+0.9'
   '-y+0.3, -x+1/2, -z+0.2'
   'y+0.9, x+0.7, z+0.8'
   'y+0.95, -x+0.4, z+0.95'
   '-y+1/4, x+0.6, -z+1/4'
   '-y+0.2, x+0.65, z+0.85'
   'y+0.8, -x+0.55, -z+0.35'
   'x+0.65, z+0.95, -y+0.3'
   '-x+0.55, -z+1/4, y+0.9'
   '-x+0.4, z+0.85, y+0.85'
   'x+0.6, -z+0.35, -y+0.35'
   '-x+1/2, -z+0.3, -y+0.2'
   'x+0.7, z+0.9, y+0.8'
   'x+3/4, -z+0.2, y+0.95'
   '-x+0.45, z+0.8, -y+1/4'
   'z+0.85, y+0.95, -x+1/2'
   '-z+0.35, -y+1/4, x+0.7'
   'z+0.95, -y+0.2, x+3/4'
   '-z+1/4, y+0.8, -x+0.45'
   '-z+0.2, y+0.85, x+0.65'
   'z+0.8, -y+0.35, -x+0.55'
   '-z+0.3, -y+0.3, -x+0.4'
   'z+0.9, y+0.9, x+0.6'
   'x+0.8, y, z'
   '-x+0.2, -y, -z'
   '-x+0.35, -y+0.05, z+0.1'
   'x+0.85, y+0.15, -z+0.1'
   '-x+1/4, y+0.1, -z+0.15'
   'x+0.95, -y+0.1, z+0.05'
   'x+0.9, -y+0.15, -z+0.05'
   '-x+0.3, y+0.05, z+0.15'
   'z, x+0.8, y'
   '-z, -x+0.2, -y'
   'z+0.1, -x+0.35, -y+0.05'
   '-z+0.1, x+0.85, y+0.15'
   '-z+0.15, -x+1/4, y+0.1'
   'z+0.05, x+0.95, -y+0.1'
   '-z+0.05, x+0.9, -y+0.15'
   'z+0.15, -x+0.3, y+0.05'
   'y, z, x+0.8'
   '-y, -z, -x+0.2'
   '-y+0.05, z+0.1, -x+0.35'
   'y+0.15, -z+0.1, x+0.85'
   'y+0.1, -z+0.15, -x+1/4'
   '-y+0.1, z+0.05, x+0.95'
   '-y+0.15, -z+0.05, x+0.9'
   'y+0.05, z+0.15, -x+0.3'
   'y+0.15, x+0.85, -z+0.1'
   '-y+0.05, -x+0.35, z+0.1'
   '-y, -x+0.2, -z'
   'y, x+0.8, z'
   'y+0.05, -x+0.3, z+0.15'
   '-y+0.15, x+0.9, -z+0.05'
   '-y+0.1, x+0.95, z+0.05'
   'y+0.1, -x+1/4, -z+0.15'
   'x+0.95, z+0.05, -y+0.1'
   '-x+1/4, -z+0.15, y+0.1'
   '-x+0.3, z+0.15, y+0.05'
   'x+0.9, -z+0.05, -y+0.15'
   '-x+0.2, -z, -y'
   'x+0.8, z, y'
   'x+0.85, -z+0.1, y+0.15'
   '-x+0.35, z+0.1, -y+0.05'
   'z+0.15, y+0.05, -x+0.3'
   '-z+0.05, -y+0.15, x+0.9'
   'z+0.05, -y+0.1, x+0.95'
   '-z+0.15, y+0.1, -x+1/4'
   '-z+0.1, y+0.15, x+0.85'
   'z+0.1, -y+0.05, -x+0.35'
   '-z, -y, -x+0.2'
   'z, y, x+0.8'
   'x+0.8, y+0.1, z+0.1'
   '-x+0.2, -y+0.1, -z+0.1'
   '-x+0.35, -y+0.15, z'
   'x+0.85, y+0.05, -z'
   '-x+1/4, y, -z+0.05'
   'x+0.95, -y, z+0.15'
   'x+0.9, -y+0.05, -z+0.15'
   '-x+0.3, y+0.15, z+0.05'
   'z, x+0.9, y+0.1'
   '-z, -x+0.3, -y+0.1'
   'z+0.1, -x+1/4, -y+0.15'
   '-z+0.1, x+0.95, y+0.05'
   '-z+0.15, -x+0.35, y'
   'z+0.05, x+0.85, -y'
   '-z+0.05, x+0.8, -y+0.05'
   'z+0.15, -x+0.2, y+0.15'
   'y, z+0.1, x+0.9'
   '-y, -z+0.1, -x+0.3'
   '-y+0.05, z, -x+1/4'
   'y+0.15, -z, x+0.95'
   'y+0.1, -z+0.05, -x+0.35'
   '-y+0.1, z+0.15, x+0.85'
   '-y+0.15, -z+0.15, x+0.8'
   'y+0.05, z+0.05, -x+0.2'
   'y+0.15, x+0.95, -z'
   '-y+0.05, -x+1/4, z'
   '-y, -x+0.3, -z+0.1'
   'y, x+0.9, z+0.1'
   'y+0.05, -x+0.2, z+0.05'
   '-y+0.15, x+0.8, -z+0.15'
   '-y+0.1, x+0.85, z+0.15'
   'y+0.1, -x+0.35, -z+0.05'
   'x+0.95, z+0.15, -y'
   '-x+1/4, -z+0.05, y'
   '-x+0.3, z+0.05, y+0.15'
   'x+0.9, -z+0.15, -y+0.05'
   '-x+0.2, -z+0.1, -y+0.1'
   'x+0.8, z+0.1, y+0.1'
   'x+0.85, -z, y+0.05'
   '-x+0.35, z, -y+0.15'
   'z+0.15, y+0.15, -x+0.2'
   '-z+0.05, -y+0.05, x+0.8'
   'z+0.05, -y, x+0.85'
   '-z+0.15, y, -x+0.35'
   '-z+0.1, y+0.05, x+0.95'
   'z+0.1, -y+0.15, -x+1/4'
   '-z, -y+0.1, -x+0.3'
   'z, y+0.1, x+0.9'
   'x+0.9, y, z+0.1'
   '-x+0.3, -y, -z+0.1'
   '-x+1/4, -y+0.05, z'
   'x+0.95, y+0.15, -z'
   '-x+0.35, y+0.1, -z+0.05'
   'x+0.85, -y+0.1, z+0.15'
   'x+0.8, -y+0.15, -z+0.15'
   '-x+0.2, y+0.05, z+0.05'
   'z+0.1, x+0.8, y+0.1'
   '-z+0.1, -x+0.2, -y+0.1'
   'z, -x+0.35, -y+0.15'
   '-z, x+0.85, y+0.05'
   '-z+0.05, -x+1/4, y'
   'z+0.15, x+0.95, -y'
   '-z+0.15, x+0.9, -y+0.05'
   'z+0.05, -x+0.3, y+0.15'
   'y+0.1, z, x+0.9'
   '-y+0.1, -z, -x+0.3'
   '-y+0.15, z+0.1, -x+1/4'
   'y+0.05, -z+0.1, x+0.95'
   'y, -z+0.15, -x+0.35'
   '-y, z+0.05, x+0.85'
   '-y+0.05, -z+0.05, x+0.8'
   'y+0.15, z+0.15, -x+0.2'
   'y+0.05, x+0.85, -z'
   '-y+0.15, -x+0.35, z'
   '-y+0.1, -x+0.2, -z+0.1'
   'y+0.1, x+0.8, z+0.1'
   'y+0.15, -x+0.3, z+0.05'
   '-y+0.05, x+0.9, -z+0.15'
   '-y, x+0.95, z+0.15'
   'y, -x+1/4, -z+0.05'
   'x+0.85, z+0.05, -y'
   '-x+0.35, -z+0.15, y'
   '-x+0.2, z+0.15, y+0.15'
   'x+0.8, -z+0.05, -y+0.05'
   '-x+0.3, -z, -y+0.1'
   'x+0.9, z, y+0.1'
   'x+0.95, -z+0.1, y+0.05'
   '-x+1/4, z+0.1, -y+0.15'
   'z+0.05, y+0.05, -x+0.2'
   '-z+0.15, -y+0.15, x+0.8'
   'z+0.15, -y+0.1, x+0.85'
   '-z+0.05, y+0.1, -x+0.35'
   '-z, y+0.15, x+0.95'
   'z, -y+0.05, -x+1/4'
   '-z+0.1, -y, -x+0.3'
   'z+0.1, y, x+0.9'
   'x+0.9, y+0.1, z'
   '-x+0.3, -y+0.1, -z'
   '-x+1/4, -y+0.15, z+0.1'
   'x+0.95, y+0.05, -z+0.1'
   '-x+0.35, y, -z+0.15'
   'x+0.85, -y, z+0.05'
   'x+0.8, -y+0.05, -z+0.05'
   '-x+0.2, y+0.15, z+0.15'
   'z+0.1, x+0.9, y'
   '-z+0.1, -x+0.3, -y'
   'z, -x+1/4, -y+0.05'
   '-z, x+0.95, y+0.15'
   '-z+0.05, -x+0.35, y+0.1'
   'z+0.15, x+0.85, -y+0.1'
   '-z+0.15, x+0.8, -y+0.15'
   'z+0.05, -x+0.2, y+0.05'
   'y+0.1, z+0.1, x+0.8'
   '-y+0.1, -z+0.1, -x+0.2'
   '-y+0.15, z, -x+0.35'
   'y+0.05, -z, x+0.85'
   'y, -z+0.05, -x+1/4'
   '-y, z+0.15, x+0.95'
   '-y+0.05, -z+0.15, x+0.9'
   'y+0.15, z+0.05, -x+0.3'
   'y+0.05, x+0.95, -z+0.1'
   '-y+0.15, -x+1/4, z+0.1'
   '-y+0.1, -x+0.3, -z'
   'y+0.1, x+0.9, z'
   'y+0.15, -x+0.2, z+0.15'
   '-y+0.05, x+0.8, -z+0.05'
   '-y, x+0.85, z+0.05'
   'y, -x+0.35, -z+0.15'
   'x+0.85, z+0.15, -y+0.1'
   '-x+0.35, -z+0.05, y+0.1'
   '-x+0.2, z+0.05, y+0.05'
   'x+0.8, -z+0.15, -y+0.15'
   '-x+0.3, -z+0.1, -y'
   'x+0.9, z+0.1, y'
   'x+0.95, -z, y+0.15'
   '-x+1/4, z, -y+0.05'
   'z+0.05, y+0.15, -x+0.3'
   '-z+0.15, -y+0.05, x+0.9'
   'z+0.15, -y, x+0.95'
   '-z+0.05, y, -x+1/4'
   '-z, y+0.05, x+0.85'
   'z, -y+0.15, -x+0.35'
   '-z+0.1, -y+0.1, -x+0.2'
   'z+0.1, y+0.1, x+0.8'
   'x+0.8, y, z+0.2'
   '-x+0.2, -y, -z+0.8'
   '-x+0.35, -y+0.05, z+0.3'
   'x+0.85, y+0.15, -z+0.9'
   '-x+1/4, y+0.1, -z+0.95'
   'x+0.95, -y+0.1, z+1/4'
   'x+0.9, -y+0.15, -z+0.85'
   '-x+0.3, y+0.05, z+0.35'
   'z+0.2, x+0.8, y'
   '-z+0.8, -x+0.2, -y'
   'z+0.3, -x+0.35, -y+0.05'
   '-z+0.9, x+0.85, y+0.15'
   '-z+0.95, -x+1/4, y+0.1'
   'z+1/4, x+0.95, -y+0.1'
   '-z+0.85, x+0.9, -y+0.15'
   'z+0.35, -x+0.3, y+0.05'
   'y, z+0.2, x+0.8'
   '-y, -z+0.8, -x+0.2'
   '-y+0.05, z+0.3, -x+0.35'
   'y+0.15, -z+0.9, x+0.85'
   'y+0.1, -z+0.95, -x+1/4'
   '-y+0.1, z+1/4, x+0.95'
   '-y+0.15, -z+0.85, x+0.9'
   'y+0.05, z+0.35, -x+0.3'
   'y+0.15, x+0.85, -z+0.9'
   '-y+0.05, -x+0.35, z+0.3'
   '-y, -x+0.2, -z+0.8'
   'y, x+0.8, z+0.2'
   'y+0.05, -x+0.3, z+0.35'
   '-y+0.15, x+0.9, -z+0.85'
   '-y+0.1, x+0.95, z+1/4'
   'y+0.1, -x+1/4, -z+0.95'
   'x+0.95, z+1/4, -y+0.1'
   '-x+1/4, -z+0.95, y+0.1'
   '-x+0.3, z+0.35, y+0.05'
   'x+0.9, -z+0.85, -y+0.15'
   '-x+0.2, -z+0.8, -y'
   'x+0.8, z+0.2, y'
   'x+0.85, -z+0.9, y+0.15'
   '-x+0.35, z+0.3, -y+0.05'
   'z+0.35, y+0.05, -x+0.3'
   '-z+0.85, -y+0.15, x+0.9'
   'z+1/4, -y+0.1, x+0.95'
   '-z+0.95, y+0.1, -x+1/4'
   '-z+0.9, y+0.15, x+0.85'
   'z+0.3, -y+0.05, -x+0.35'
   '-z+0.8, -y, -x+0.2'
   'z+0.2, y, x+0.8'
   'x+0.8, y+0.1, z+0.3'
   '-x+0.2, -y+0.1, -z+0.9'
   '-x+0.35, -y+0.15, z+0.2'
   'x+0.85, y+0.05, -z+0.8'
   '-x+1/4, y, -z+0.85'
   'x+0.95, -y, z+0.35'
   'x+0.9, -y+0.05, -z+0.95'
   '-x+0.3, y+0.15, z+1/4'
   'z+0.2, x+0.9, y+0.1'
   '-z+0.8, -x+0.3, -y+0.1'
   'z+0.3, -x+1/4, -y+0.15'
   '-z+0.9, x+0.95, y+0.05'
   '-z+0.95, -x+0.35, y'
   'z+1/4, x+0.85, -y'
   '-z+0.85, x+0.8, -y+0.05'
   'z+0.35, -x+0.2, y+0.15'
   'y, z+0.3, x+0.9'
   '-y, -z+0.9, -x+0.3'
   '-y+0.05, z+0.2, -x+1/4'
   'y+0.15, -z+0.8, x+0.95'
   'y+0.1, -z+0.85, -x+0.35'
   '-y+0.1, z+0.35, x+0.85'
   '-y+0.15, -z+0.95, x+0.8'
   'y+0.05, z+1/4, -x+0.2'
   'y+0.15, x+0.95, -z+0.8'
   '-y+0.05, -x+1/4, z+0.2'
   '-y, -x+0.3, -z+0.9'
   'y, x+0.9, z+0.3'
   'y+0.05, -x+0.2, z+1/4'
   '-y+0.15, x+0.8, -z+0.95'
   '-y+0.1, x+0.85, z+0.35'
   'y+0.1, -x+0.35, -z+0.85'
   'x+0.95, z+0.35, -y'
   '-x+1/4, -z+0.85, y'
   '-x+0.3, z+1/4, y+0.15'
   'x+0.9, -z+0.95, -y+0.05'
   '-x+0.2, -z+0.9, -y+0.1'
   'x+0.8, z+0.3, y+0.1'
   'x+0.85, -z+0.8, y+0.05'
   '-x+0.35, z+0.2, -y+0.15'
   'z+0.35, y+0.15, -x+0.2'
   '-z+0.85, -y+0.05, x+0.8'
   'z+1/4, -y, x+0.85'
   '-z+0.95, y, -x+0.35'
   '-z+0.9, y+0.05, x+0.95'
   'z+0.3, -y+0.15, -x+1/4'
   '-z+0.8, -y+0.1, -x+0.3'
   'z+0.2, y+0.1, x+0.9'
   'x+0.9, y, z+0.3'
   '-x+0.3, -y, -z+0.9'
   '-x+1/4, -y+0.05, z+0.2'
   'x+0.95, y+0.15, -z+0.8'
   '-x+0.35, y+0.1, -z+0.85'
   'x+0.85, -y+0.1, z+0.35'
   'x+0.8, -y+0.15, -z+0.95'
   '-x+0.2, y+0.05, z+1/4'
   'z+0.3, x+0.8, y+0.1'
   '-z+0.9, -x+0.2, -y+0.1'
   'z+0.2, -x+0.35, -y+0.15'
   '-z+0.8, x+0.85, y+0.05'
   '-z+0.85, -x+1/4, y'
   'z+0.35, x+0.95, -y'
   '-z+0.95, x+0.9, -y+0.05'
   'z+1/4, -x+0.3, y+0.15'
   'y+0.1, z+0.2, x+0.9'
   '-y+0.1, -z+0.8, -x+0.3'
   '-y+0.15, z+0.3, -x+1/4'
   'y+0.05, -z+0.9, x+0.95'
   'y, -z+0.95, -x+0.35'
   '-y, z+1/4, x+0.85'
   '-y+0.05, -z+0.85, x+0.8'
   'y+0.15, z+0.35, -x+0.2'
   'y+0.05, x+0.85, -z+0.8'
   '-y+0.15, -x+0.35, z+0.2'
   '-y+0.1, -x+0.2, -z+0.9'
   'y+0.1, x+0.8, z+0.3'
   'y+0.15, -x+0.3, z+1/4'
   '-y+0.05, x+0.9, -z+0.95'
   '-y, x+0.95, z+0.35'
   'y, -x+1/4, -z+0.85'
   'x+0.85, z+1/4, -y'
   '-x+0.35, -z+0.95, y'
   '-x+0.2, z+0.35, y+0.15'
   'x+0.8, -z+0.85, -y+0.05'
   '-x+0.3, -z+0.8, -y+0.1'
   'x+0.9, z+0.2, y+0.1'
   'x+0.95, -z+0.9, y+0.05'
   '-x+1/4, z+0.3, -y+0.15'
   'z+1/4, y+0.05, -x+0.2'
   '-z+0.95, -y+0.15, x+0.8'
   'z+0.35, -y+0.1, x+0.85'
   '-z+0.85, y+0.1, -x+0.35'
   '-z+0.8, y+0.15, x+0.95'
   'z+0.2, -y+0.05, -x+1/4'
   '-z+0.9, -y, -x+0.3'
   'z+0.3, y, x+0.9'
   'x+0.9, y+0.1, z+0.2'
   '-x+0.3, -y+0.1, -z+0.8'
   '-x+1/4, -y+0.15, z+0.3'
   'x+0.95, y+0.05, -z+0.9'
   '-x+0.35, y, -z+0.95'
   'x+0.85, -y, z+1/4'
   'x+0.8, -y+0.05, -z+0.85'
   '-x+0.2, y+0.15, z+0.35'
   'z+0.3, x+0.9, y'
   '-z+0.9, -x+0.3, -y'
   'z+0.2, -x+1/4, -y+0.05'
   '-z+0.8, x+0.95, y+0.15'
   '-z+0.85, -x+0.35, y+0.1'
   'z+0.35, x+0.85, -y+0.1'
   '-z+0.95, x+0.8, -y+0.15'
   'z+1/4, -x+0.2, y+0.05'
   'y+0.1, z+0.3, x+0.8'
   '-y+0.1, -z+0.9, -x+0.2'
   '-y+0.15, z+0.2, -x+0.35'
   'y+0.05, -z+0.8, x+0.85'
   'y, -z+0.85, -x+1/4'
   '-y, z+0.35, x+0.95'
   '-y+0.05, -z+0.95, x+0.9'
   'y+0.15, z+1/4, -x+0.3'
   'y+0.05, x+0.95, -z+0.9'
   '-y+0.15, -x+1/4, z+0.3'
   '-y+0.1, -x+0.3, -z+0.8'
   'y+0.1, x+0.9, z+0.2'
   'y+0.15, -x+0.2, z+0.35'
   '-y+0.05, x+0.8, -z+0.85'
   '-y, x+0.85, z+1/4'
   'y, -x+0.35, -z+0.95'
   'x+0.85, z+0.35, -y+0.1'
   '-x+0.35, -z+0.85, y+0.1'
   '-x+0.2, z+1/4, y+0.05'
   'x+0.8, -z+0.95, -y+0.15'
   '-x+0.3, -z+0.9, -y'
   'x+0.9, z+0.3, y'
   'x+0.95, -z+0.8, y+0.15'
   '-x+1/4, z+0.2, -y+0.05'
   'z+1/4, y+0.15, -x+0.3'
   '-z+0.95, -y+0.05, x+0.9'
   'z+0.35, -y, x+0.95'
   '-z+0.85, y, -x+1/4'
   '-z+0.8, y+0.05, x+0.85'
   'z+0.2, -y+0.15, -x+0.35'
   '-z+0.9, -y+0.1, -x+0.2'
   'z+0.3, y+0.1, x+0.8'
   'x+0.8, y, z+0.4'
   '-x+0.2, -y, -z+0.6'
   '-x+0.35, -y+0.05, z+1/2'
   'x+0.85, y+0.15, -z+0.7'
   '-x+1/4, y+0.1, -z+3/4'
   'x+0.95, -y+0.1, z+0.45'
   'x+0.9, -y+0.15, -z+0.65'
   '-x+0.3, y+0.05, z+0.55'
   'z+0.4, x+0.8, y'
   '-z+0.6, -x+0.2, -y'
   'z+1/2, -x+0.35, -y+0.05'
   '-z+0.7, x+0.85, y+0.15'
   '-z+3/4, -x+1/4, y+0.1'
   'z+0.45, x+0.95, -y+0.1'
   '-z+0.65, x+0.9, -y+0.15'
   'z+0.55, -x+0.3, y+0.05'
   'y, z+0.4, x+0.8'
   '-y, -z+0.6, -x+0.2'
   '-y+0.05, z+1/2, -x+0.35'
   'y+0.15, -z+0.7, x+0.85'
   'y+0.1, -z+3/4, -x+1/4'
   '-y+0.1, z+0.45, x+0.95'
   '-y+0.15, -z+0.65, x+0.9'
   'y+0.05, z+0.55, -x+0.3'
   'y+0.15, x+0.85, -z+0.7'
   '-y+0.05, -x+0.35, z+1/2'
   '-y, -x+0.2, -z+0.6'
   'y, x+0.8, z+0.4'
   'y+0.05, -x+0.3, z+0.55'
   '-y+0.15, x+0.9, -z+0.65'
   '-y+0.1, x+0.95, z+0.45'
   'y+0.1, -x+1/4, -z+3/4'
   'x+0.95, z+0.45, -y+0.1'
   '-x+1/4, -z+3/4, y+0.1'
   '-x+0.3, z+0.55, y+0.05'
   'x+0.9, -z+0.65, -y+0.15'
   '-x+0.2, -z+0.6, -y'
   'x+0.8, z+0.4, y'
   'x+0.85, -z+0.7, y+0.15'
   '-x+0.35, z+1/2, -y+0.05'
   'z+0.55, y+0.05, -x+0.3'
   '-z+0.65, -y+0.15, x+0.9'
   'z+0.45, -y+0.1, x+0.95'
   '-z+3/4, y+0.1, -x+1/4'
   '-z+0.7, y+0.15, x+0.85'
   'z+1/2, -y+0.05, -x+0.35'
   '-z+0.6, -y, -x+0.2'
   'z+0.4, y, x+0.8'
   'x+0.8, y+0.1, z+1/2'
   '-x+0.2, -y+0.1, -z+0.7'
   '-x+0.35, -y+0.15, z+0.4'
   'x+0.85, y+0.05, -z+0.6'
   '-x+1/4, y, -z+0.65'
   'x+0.95, -y, z+0.55'
   'x+0.9, -y+0.05, -z+3/4'
   '-x+0.3, y+0.15, z+0.45'
   'z+0.4, x+0.9, y+0.1'
   '-z+0.6, -x+0.3, -y+0.1'
   'z+1/2, -x+1/4, -y+0.15'
   '-z+0.7, x+0.95, y+0.05'
   '-z+3/4, -x+0.35, y'
   'z+0.45, x+0.85, -y'
   '-z+0.65, x+0.8, -y+0.05'
   'z+0.55, -x+0.2, y+0.15'
   'y, z+1/2, x+0.9'
   '-y, -z+0.7, -x+0.3'
   '-y+0.05, z+0.4, -x+1/4'
   'y+0.15, -z+0.6, x+0.95'
   'y+0.1, -z+0.65, -x+0.35'
   '-y+0.1, z+0.55, x+0.85'
   '-y+0.15, -z+3/4, x+0.8'
   'y+0.05, z+0.45, -x+0.2'
   'y+0.15, x+0.95, -z+0.6'
   '-y+0.05, -x+1/4, z+0.4'
   '-y, -x+0.3, -z+0.7'
   'y, x+0.9, z+1/2'
   'y+0.05, -x+0.2, z+0.45'
   '-y+0.15, x+0.8, -z+3/4'
   '-y+0.1, x+0.85, z+0.55'
   'y+0.1, -x+0.35, -z+0.65'
   'x+0.95, z+0.55, -y'
   '-x+1/4, -z+0.65, y'
   '-x+0.3, z+0.45, y+0.15'
   'x+0.9, -z+3/4, -y+0.05'
   '-x+0.2, -z+0.7, -y+0.1'
   'x+0.8, z+1/2, y+0.1'
   'x+0.85, -z+0.6, y+0.05'
   '-x+0.35, z+0.4, -y+0.15'
   'z+0.55, y+0.15, -x+0.2'
   '-z+0.65, -y+0.05, x+0.8'
   'z+0.45, -y, x+0.85'
   '-z+3/4, y, -x+0.35'
   '-z+0.7, y+0.05, x+0.95'
   'z+1/2, -y+0.15, -x+1/4'
   '-z+0.6, -y+0.1, -x+0.3'
   'z+0.4, y+0.1, x+0.9'
   'x+0.9, y, z+1/2'
   '-x+0.3, -y, -z+0.7'
   '-x+1/4, -y+0.05, z+0.4'
   'x+0.95, y+0.15, -z+0.6'
   '-x+0.35, y+0.1, -z+0.65'
   'x+0.85, -y+0.1, z+0.55'
   'x+0.8, -y+0.15, -z+3/4'
   '-x+0.2, y+0.05, z+0.45'
   'z+1/2, x+0.8, y+0.1'
   '-z+0.7, -x+0.2, -y+0.1'
   'z+0.4, -x+0.35, -y+0.15'
   '-z+0.6, x+0.85, y+0.05'
   '-z+0.65, -x+1/4, y'
   'z+0.55, x+0.95, -y'
   '-z+3/4, x+0.9, -y+0.05'
   'z+0.45, -x+0.3, y+0.15'
   'y+0.1, z+0.4, x+0.9'
   '-y+0.1, -z+0.6, -x+0.3'
   '-y+0.15, z+1/2, -x+1/4'
   'y+0.05, -z+0.7, x+0.95'
   'y, -z+3/4, -x+0.35'
   '-y, z+0.45, x+0.85'
   '-y+0.05, -z+0.65, x+0.8'
   'y+0.15, z+0.55, -x+0.2'
   'y+0.05, x+0.85, -z+0.6'
   '-y+0.15, -x+0.35, z+0.4'
   '-y+0.1, -x+0.2, -z+0.7'
   'y+0.1, x+0.8, z+1/2'
   'y+0.15, -x+0.3, z+0.45'
   '-y+0.05, x+0.9, -z+3/4'
   '-y, x+0.95, z+0.55'
   'y, -x+1/4, -z+0.65'
   'x+0.85, z+0.45, -y'
   '-x+0.35, -z+3/4, y'
   '-x+0.2, z+0.55, y+0.15'
   'x+0.8, -z+0.65, -y+0.05'
   '-x+0.3, -z+0.6, -y+0.1'
   'x+0.9, z+0.4, y+0.1'
   'x+0.95, -z+0.7, y+0.05'
   '-x+1/4, z+1/2, -y+0.15'
   'z+0.45, y+0.05, -x+0.2'
   '-z+3/4, -y+0.15, x+0.8'
   'z+0.55, -y+0.1, x+0.85'
   '-z+0.65, y+0.1, -x+0.35'
   '-z+0.6, y+0.15, x+0.95'
   'z+0.4, -y+0.05, -x+1/4'
   '-z+0.7, -y, -x+0.3'
   'z+1/2, y, x+0.9'
   'x+0.9, y+0.1, z+0.4'
   '-x+0.3, -y+0.1, -z+0.6'
   '-x+1/4, -y+0.15, z+1/2'
   'x+0.95, y+0.05, -z+0.7'
   '-x+0.35, y, -z+3/4'
   'x+0.85, -y, z+0.45'
   'x+0.8, -y+0.05, -z+0.65'
   '-x+0.2, y+0.15, z+0.55'
   'z+1/2, x+0.9, y'
   '-z+0.7, -x+0.3, -y'
   'z+0.4, -x+1/4, -y+0.05'
   '-z+0.6, x+0.95, y+0.15'
   '-z+0.65, -x+0.35, y+0.1'
   'z+0.55, x+0.85, -y+0.1'
   '-z+3/4, x+0.8, -y+0.15'
   'z+0.45, -x+0.2, y+0.05'
   'y+0.1, z+1/2, x+0.8'
   '-y+0.1, -z+0.7, -x+0.2'
   '-y+0.15, z+0.4, -x+0.35'
   'y+0.05, -z+0.6, x+0.85'
   'y, -z+0.65, -x+1/4'
   '-y, z+0.55, x+0.95'
   '-y+0.05, -z+3/4, x+0.9'
   'y+0.15, z+0.45, -x+0.3'
   'y+0.05, x+0.95, -z+0.7'
   '-y+0.15, -x+1/4, z+1/2'
   '-y+0.1, -x+0.3, -z+0.6'
   'y+0.1, x+0.9, z+0.4'
   'y+0.15, -x+0.2, z+0.55'
   '-y+0.05, x+0.8, -z+0.65'
   '-y, x+0.85, z+0.45'
   'y, -x+0.35, -z+3/4'
   'x+0.85, z+0.55, -y+0.1'
   '-x+0.35, -z+0.65, y+0.1'
   '-x+0.2, z+0.45, y+0.05'
   'x+0.8, -z+3/4, -y+0.15'
   '-x+0.3, -z+0.7, -y'
   'x+0.9, z+1/2, y'
   'x+0.95, -z+0.6, y+0.15'
   '-x+1/4, z+0.4, -y+0.05'
   'z+0.45, y+0.15, -x+0.3'
   '-z+3/4, -y+0.05, x+0.9'
   'z+0.55, -y, x+0.95'
   '-z+0.65, y, -x+1/4'
   '-z+0.6, y+0.05, x+0.85'
   'z+0.4, -y+0.15, -x+0.35'
   '-z+0.7, -y+0.1, -x+0.2'
   'z+1/2, y+0.1, x+0.8'
   'x+0.8, y, z+0.6'
   '-x+0.2, -y, -z+0.4'
   '-x+0.35, -y+0.05, z+0.7'
   'x+0.85, y+0.15, -z+1/2'
   '-x+1/4, y+0.1, -z+0.55'
   'x+0.95, -y+0.1, z+0.65'
   'x+0.9, -y+0.15, -z+0.45'
   '-x+0.3, y+0.05, z+3/4'
   'z+0.6, x+0.8, y'
   '-z+0.4, -x+0.2, -y'
   'z+0.7, -x+0.35, -y+0.05'
   '-z+1/2, x+0.85, y+0.15'
   '-z+0.55, -x+1/4, y+0.1'
   'z+0.65, x+0.95, -y+0.1'
   '-z+0.45, x+0.9, -y+0.15'
   'z+3/4, -x+0.3, y+0.05'
   'y, z+0.6, x+0.8'
   '-y, -z+0.4, -x+0.2'
   '-y+0.05, z+0.7, -x+0.35'
   'y+0.15, -z+1/2, x+0.85'
   'y+0.1, -z+0.55, -x+1/4'
   '-y+0.1, z+0.65, x+0.95'
   '-y+0.15, -z+0.45, x+0.9'
   'y+0.05, z+3/4, -x+0.3'
   'y+0.15, x+0.85, -z+1/2'
   '-y+0.05, -x+0.35, z+0.7'
   '-y, -x+0.2, -z+0.4'
   'y, x+0.8, z+0.6'
   'y+0.05, -x+0.3, z+3/4'
   '-y+0.15, x+0.9, -z+0.45'
   '-y+0.1, x+0.95, z+0.65'
   'y+0.1, -x+1/4, -z+0.55'
   'x+0.95, z+0.65, -y+0.1'
   '-x+1/4, -z+0.55, y+0.1'
   '-x+0.3, z+3/4, y+0.05'
   'x+0.9, -z+0.45, -y+0.15'
   '-x+0.2, -z+0.4, -y'
   'x+0.8, z+0.6, y'
   'x+0.85, -z+1/2, y+0.15'
   '-x+0.35, z+0.7, -y+0.05'
   'z+3/4, y+0.05, -x+0.3'
   '-z+0.45, -y+0.15, x+0.9'
   'z+0.65, -y+0.1, x+0.95'
   '-z+0.55, y+0.1, -x+1/4'
   '-z+1/2, y+0.15, x+0.85'
   'z+0.7, -y+0.05, -x+0.35'
   '-z+0.4, -y, -x+0.2'
   'z+0.6, y, x+0.8'
   'x+0.8, y+0.1, z+0.7'
   '-x+0.2, -y+0.1, -z+1/2'
   '-x+0.35, -y+0.15, z+0.6'
   'x+0.85, y+0.05, -z+0.4'
   '-x+1/4, y, -z+0.45'
   'x+0.95, -y, z+3/4'
   'x+0.9, -y+0.05, -z+0.55'
   '-x+0.3, y+0.15, z+0.65'
   'z+0.6, x+0.9, y+0.1'
   '-z+0.4, -x+0.3, -y+0.1'
   'z+0.7, -x+1/4, -y+0.15'
   '-z+1/2, x+0.95, y+0.05'
   '-z+0.55, -x+0.35, y'
   'z+0.65, x+0.85, -y'
   '-z+0.45, x+0.8, -y+0.05'
   'z+3/4, -x+0.2, y+0.15'
   'y, z+0.7, x+0.9'
   '-y, -z+1/2, -x+0.3'
   '-y+0.05, z+0.6, -x+1/4'
   'y+0.15, -z+0.4, x+0.95'
   'y+0.1, -z+0.45, -x+0.35'
   '-y+0.1, z+3/4, x+0.85'
   '-y+0.15, -z+0.55, x+0.8'
   'y+0.05, z+0.65, -x+0.2'
   'y+0.15, x+0.95, -z+0.4'
   '-y+0.05, -x+1/4, z+0.6'
   '-y, -x+0.3, -z+1/2'
   'y, x+0.9, z+0.7'
   'y+0.05, -x+0.2, z+0.65'
   '-y+0.15, x+0.8, -z+0.55'
   '-y+0.1, x+0.85, z+3/4'
   'y+0.1, -x+0.35, -z+0.45'
   'x+0.95, z+3/4, -y'
   '-x+1/4, -z+0.45, y'
   '-x+0.3, z+0.65, y+0.15'
   'x+0.9, -z+0.55, -y+0.05'
   '-x+0.2, -z+1/2, -y+0.1'
   'x+0.8, z+0.7, y+0.1'
   'x+0.85, -z+0.4, y+0.05'
   '-x+0.35, z+0.6, -y+0.15'
   'z+3/4, y+0.15, -x+0.2'
   '-z+0.45, -y+0.05, x+0.8'
   'z+0.65, -y, x+0.85'
   '-z+0.55, y, -x+0.35'
   '-z+1/2, y+0.05, x+0.95'
   'z+0.7, -y+0.15, -x+1/4'
   '-z+0.4, -y+0.1, -x+0.3'
   'z+0.6, y+0.1, x+0.9'
   'x+0.9, y, z+0.7'
   '-x+0.3, -y, -z+1/2'
   '-x+1/4, -y+0.05, z+0.6'
   'x+0.95, y+0.15, -z+0.4'
   '-x+0.35, y+0.1, -z+0.45'
   'x+0.85, -y+0.1, z+3/4'
   'x+0.8, -y+0.15, -z+0.55'
   '-x+0.2, y+0.05, z+0.65'
   'z+0.7, x+0.8, y+0.1'
   '-z+1/2, -x+0.2, -y+0.1'
   'z+0.6, -x+0.35, -y+0.15'
   '-z+0.4, x+0.85, y+0.05'
   '-z+0.45, -x+1/4, y'
   'z+3/4, x+0.95, -y'
   '-z+0.55, x+0.9, -y+0.05'
   'z+0.65, -x+0.3, y+0.15'
   'y+0.1, z+0.6, x+0.9'
   '-y+0.1, -z+0.4, -x+0.3'
   '-y+0.15, z+0.7, -x+1/4'
   'y+0.05, -z+1/2, x+0.95'
   'y, -z+0.55, -x+0.35'
   '-y, z+0.65, x+0.85'
   '-y+0.05, -z+0.45, x+0.8'
   'y+0.15, z+3/4, -x+0.2'
   'y+0.05, x+0.85, -z+0.4'
   '-y+0.15, -x+0.35, z+0.6'
   '-y+0.1, -x+0.2, -z+1/2'
   'y+0.1, x+0.8, z+0.7'
   'y+0.15, -x+0.3, z+0.65'
   '-y+0.05, x+0.9, -z+0.55'
   '-y, x+0.95, z+3/4'
   'y, -x+1/4, -z+0.45'
   'x+0.85, z+0.65, -y'
   '-x+0.35, -z+0.55, y'
   '-x+0.2, z+3/4, y+0.15'
   'x+0.8, -z+0.45, -y+0.05'
   '-x+0.3, -z+0.4, -y+0.1'
   'x+0.9, z+0.6, y+0.1'
   'x+0.95, -z+1/2, y+0.05'
   '-x+1/4, z+0.7, -y+0.15'
   'z+0.65, y+0.05, -x+0.2'
   '-z+0.55, -y+0.15, x+0.8'
   'z+3/4, -y+0.1, x+0.85'
   '-z+0.45, y+0.1, -x+0.35'
   '-z+0.4, y+0.15, x+0.95'
   'z+0.6, -y+0.05, -x+1/4'
   '-z+1/2, -y, -x+0.3'
   'z+0.7, y, x+0.9'
   'x+0.9, y+0.1, z+0.6'
   '-x+0.3, -y+0.1, -z+0.4'
   '-x+1/4, -y+0.15, z+0.7'
   'x+0.95, y+0.05, -z+1/2'
   '-x+0.35, y, -z+0.55'
   'x+0.85, -y, z+0.65'
   'x+0.8, -y+0.05, -z+0.45'
   '-x+0.2, y+0.15, z+3/4'
   'z+0.7, x+0.9, y'
   '-z+1/2, -x+0.3, -y'
   'z+0.6, -x+1/4, -y+0.05'
   '-z+0.4, x+0.95, y+0.15'
   '-z+0.45, -x+0.35, y+0.1'
   'z+3/4, x+0.85, -y+0.1'
   '-z+0.55, x+0.8, -y+0.15'
   'z+0.65, -x+0.2, y+0.05'
   'y+0.1, z+0.7, x+0.8'
   '-y+0.1, -z+1/2, -x+0.2'
   '-y+0.15, z+0.6, -x+0.35'
   'y+0.05, -z+0.4, x+0.85'
   'y, -z+0.45, -x+1/4'
   '-y, z+3/4, x+0.95'
   '-y+0.05, -z+0.55, x+0.9'
   'y+0.15, z+0.65, -x+0.3'
   'y+0.05, x+0.95, -z+1/2'
   '-y+0.15, -x+1/4, z+0.7'
   '-y+0.1, -x+0.3, -z+0.4'
   'y+0.1, x+0.9, z+0.6'
   'y+0.15, -x+0.2, z+3/4'
   '-y+0.05, x+0.8, -z+0.45'
   '-y, x+0.85, z+0.65'
   'y, -x+0.35, -z+0.55'
   'x+0.85, z+3/4, -y+0.1'
   '-x+0.35, -z+0.45, y+0.1'
   '-x+0.2, z+0.65, y+0.05'
   'x+0.8, -z+0.55, -y+0.15'
   '-x+0.3, -z+1/2, -y'
   'x+0.9, z+0.7, y'
   'x+0.95, -z+0.4, y+0.15'
   '-x+1/4, z+0.6, -y+0.05'
   'z+0.65, y+0.15, -x+0.3'
   '-z+0.55, -y+0.05, x+0.9'
   'z+3/4, -y, x+0.95'
   '-z+0.45, y, -x+1/4'
   '-z+0.4, y+0.05, x+0.85'
   'z+0.6, -y+0.15, -x+0.35'
   '-z+1/2, -y+0.1, -x+0.2'
   'z+0.7, y+0.1, x+0.8'
   'x+0.8, y, z+0.8'
   '-x+0.2, -y, -z+0.2'
   '-x+0.35, -y+0.05, z+0.9'
   'x+0.85, y+0.15, -z+0.3'
   '-x+1/4, y+0.1, -z+0.35'
   'x+0.95, -y+0.1, z+0.85'
   'x+0.9, -y+0.15, -z+1/4'
   '-x+0.3, y+0.05, z+0.95'
   'z+0.8, x+0.8, y'
   '-z+0.2, -x+0.2, -y'
   'z+0.9, -x+0.35, -y+0.05'
   '-z+0.3, x+0.85, y+0.15'
   '-z+0.35, -x+1/4, y+0.1'
   'z+0.85, x+0.95, -y+0.1'
   '-z+1/4, x+0.9, -y+0.15'
   'z+0.95, -x+0.3, y+0.05'
   'y, z+0.8, x+0.8'
   '-y, -z+0.2, -x+0.2'
   '-y+0.05, z+0.9, -x+0.35'
   'y+0.15, -z+0.3, x+0.85'
   'y+0.1, -z+0.35, -x+1/4'
   '-y+0.1, z+0.85, x+0.95'
   '-y+0.15, -z+1/4, x+0.9'
   'y+0.05, z+0.95, -x+0.3'
   'y+0.15, x+0.85, -z+0.3'
   '-y+0.05, -x+0.35, z+0.9'
   '-y, -x+0.2, -z+0.2'
   'y, x+0.8, z+0.8'
   'y+0.05, -x+0.3, z+0.95'
   '-y+0.15, x+0.9, -z+1/4'
   '-y+0.1, x+0.95, z+0.85'
   'y+0.1, -x+1/4, -z+0.35'
   'x+0.95, z+0.85, -y+0.1'
   '-x+1/4, -z+0.35, y+0.1'
   '-x+0.3, z+0.95, y+0.05'
   'x+0.9, -z+1/4, -y+0.15'
   '-x+0.2, -z+0.2, -y'
   'x+0.8, z+0.8, y'
   'x+0.85, -z+0.3, y+0.15'
   '-x+0.35, z+0.9, -y+0.05'
   'z+0.95, y+0.05, -x+0.3'
   '-z+1/4, -y+0.15, x+0.9'
   'z+0.85, -y+0.1, x+0.95'
   '-z+0.35, y+0.1, -x+1/4'
   '-z+0.3, y+0.15, x+0.85'
   'z+0.9, -y+0.05, -x+0.35'
   '-z+0.2, -y, -x+0.2'
   'z+0.8, y, x+0.8'
   'x+0.8, y+0.1, z+0.9'
   '-x+0.2, -y+0.1, -z+0.3'
   '-x+0.35, -y+0.15, z+0.8'
   'x+0.85, y+0.05, -z+0.2'
   '-x+1/4, y, -z+1/4'
   'x+0.95, -y, z+0.95'
   'x+0.9, -y+0.05, -z+0.35'
   '-x+0.3, y+0.15, z+0.85'
   'z+0.8, x+0.9, y+0.1'
   '-z+0.2, -x+0.3, -y+0.1'
   'z+0.9, -x+1/4, -y+0.15'
   '-z+0.3, x+0.95, y+0.05'
   '-z+0.35, -x+0.35, y'
   'z+0.85, x+0.85, -y'
   '-z+1/4, x+0.8, -y+0.05'
   'z+0.95, -x+0.2, y+0.15'
   'y, z+0.9, x+0.9'
   '-y, -z+0.3, -x+0.3'
   '-y+0.05, z+0.8, -x+1/4'
   'y+0.15, -z+0.2, x+0.95'
   'y+0.1, -z+1/4, -x+0.35'
   '-y+0.1, z+0.95, x+0.85'
   '-y+0.15, -z+0.35, x+0.8'
   'y+0.05, z+0.85, -x+0.2'
   'y+0.15, x+0.95, -z+0.2'
   '-y+0.05, -x+1/4, z+0.8'
   '-y, -x+0.3, -z+0.3'
   'y, x+0.9, z+0.9'
   'y+0.05, -x+0.2, z+0.85'
   '-y+0.15, x+0.8, -z+0.35'
   '-y+0.1, x+0.85, z+0.95'
   'y+0.1, -x+0.35, -z+1/4'
   'x+0.95, z+0.95, -y'
   '-x+1/4, -z+1/4, y'
   '-x+0.3, z+0.85, y+0.15'
   'x+0.9, -z+0.35, -y+0.05'
   '-x+0.2, -z+0.3, -y+0.1'
   'x+0.8, z+0.9, y+0.1'
   'x+0.85, -z+0.2, y+0.05'
   '-x+0.35, z+0.8, -y+0.15'
   'z+0.95, y+0.15, -x+0.2'
   '-z+1/4, -y+0.05, x+0.8'
   'z+0.85, -y, x+0.85'
   '-z+0.35, y, -x+0.35'
   '-z+0.3, y+0.05, x+0.95'
   'z+0.9, -y+0.15, -x+1/4'
   '-z+0.2, -y+0.1, -x+0.3'
   'z+0.8, y+0.1, x+0.9'
   'x+0.9, y, z+0.9'
   '-x+0.3, -y, -z+0.3'
   '-x+1/4, -y+0.05, z+0.8'
   'x+0.95, y+0.15, -z+0.2'
   '-x+0.35, y+0.1, -z+1/4'
   'x+0.85, -y+0.1, z+0.95'
   'x+0.8, -y+0.15, -z+0.35'
   '-x+0.2, y+0.05, z+0.85'
   'z+0.9, x+0.8, y+0.1'
   '-z+0.3, -x+0.2, -y+0.1'
   'z+0.8, -x+0.35, -y+0.15'
   '-z+0.2, x+0.85, y+0.05'
   '-z+1/4, -x+1/4, y'
   'z+0.95, x+0.95, -y'
   '-z+0.35, x+0.9, -y+0.05'
   'z+0.85, -x+0.3, y+0.15'
   'y+0.1, z+0.8, x+0.9'
   '-y+0.1, -z+0.2, -x+0.3'
   '-y+0.15, z+0.9, -x+1/4'
   'y+0.05, -z+0.3, x+0.95'
   'y, -z+0.35, -x+0.35'
   '-y, z+0.85, x+0.85'
   '-y+0.05, -z+1/4, x+0.8'
   'y+0.15, z+0.95, -x+0.2'
   'y+0.05, x+0.85, -z+0.2'
   '-y+0.15, -x+0.35, z+0.8'
   '-y+0.1, -x+0.2, -z+0.3'
   'y+0.1, x+0.8, z+0.9'
   'y+0.15, -x+0.3, z+0.85'
   '-y+0.05, x+0.9, -z+0.35'
   '-y, x+0.95, z+0.95'
   'y, -x+1/4, -z+1/4'
   'x+0.85, z+0.85, -y'
   '-x+0.35, -z+0.35, y'
   '-x+0.2, z+0.95, y+0.15'
   'x+0.8, -z+1/4, -y+0.05'
   '-x+0.3, -z+0.2, -y+0.1'
   'x+0.9, z+0.8, y+0.1'
   'x+0.95, -z+0.3, y+0.05'
   '-x+1/4, z+0.9, -y+0.15'
   'z+0.85, y+0.05, -x+0.2'
   '-z+0.35, -y+0.15, x+0.8'
   'z+0.95, -y+0.1, x+0.85'
   '-z+1/4, y+0.1, -x+0.35'
   '-z+0.2, y+0.15, x+0.95'
   'z+0.8, -y+0.05, -x+1/4'
   '-z+0.3, -y, -x+0.3'
   'z+0.9, y, x+0.9'
   'x+0.9, y+0.1, z+0.8'
   '-x+0.3, -y+0.1, -z+0.2'
   '-x+1/4, -y+0.15, z+0.9'
   'x+0.95, y+0.05, -z+0.3'
   '-x+0.35, y, -z+0.35'
   'x+0.85, -y, z+0.85'
   'x+0.8, -y+0.05, -z+1/4'
   '-x+0.2, y+0.15, z+0.95'
   'z+0.9, x+0.9, y'
   '-z+0.3, -x+0.3, -y'
   'z+0.8, -x+1/4, -y+0.05'
   '-z+0.2, x+0.95, y+0.15'
   '-z+1/4, -x+0.35, y+0.1'
   'z+0.95, x+0.85, -y+0.1'
   '-z+0.35, x+0.8, -y+0.15'
   'z+0.85, -x+0.2, y+0.05'
   'y+0.1, z+0.9, x+0.8'
   '-y+0.1, -z+0.3, -x+0.2'
   '-y+0.15, z+0.8, -x+0.35'
   'y+0.05, -z+0.2, x+0.85'
   'y, -z+1/4, -x+1/4'
   '-y, z+0.95, x+0.95'
   '-y+0.05, -z+0.35, x+0.9'
   'y+0.15, z+0.85, -x+0.3'
   'y+0.05, x+0.95, -z+0.3'
   '-y+0.15, -x+1/4, z+0.9'
   '-y+0.1, -x+0.3, -z+0.2'
   'y+0.1, x+0.9, z+0.8'
   'y+0.15, -x+0.2, z+0.95'
   '-y+0.05, x+0.8, -z+1/4'
   '-y, x+0.85, z+0.85'
   'y, -x+0.35, -z+0.35'
   'x+0.85, z+0.95, -y+0.1'
   '-x+0.35, -z+1/4, y+0.1'
   '-x+0.2, z+0.85, y+0.05'
   'x+0.8, -z+0.35, -y+0.15'
   '-x+0.3, -z+0.3, -y'
   'x+0.9, z+0.9, y'
   'x+0.95, -z+0.2, y+0.15'
   '-x+1/4, z+0.8, -y+0.05'
   'z+0.85, y+0.15, -x+0.3'
   '-z+0.35, -y+0.05, x+0.9'
   'z+0.95, -y, x+0.95'
   '-z+1/4, y, -x+1/4'
   '-z+0.2, y+0.05, x+0.85'
   'z+0.8, -y+0.15, -x+0.35'
   '-z+0.3, -y+0.1, -x+0.2'
   'z+0.9, y+0.1, x+0.8'
   'x+0.8, y+0.2, z'
   '-x+0.2, -y+0.8, -z'
   '-x+0.35, -y+0.85, z+0.1'
   'x+0.85, y+0.35, -z+0.1'
   '-x+1/4, y+0.3, -z+0.15'
   'x+0.95, -y+0.9, z+0.05'
   'x+0.9, -y+0.95, -z+0.05'
   '-x+0.3, y+1/4, z+0.15'
   'z, x+0.8, y+0.2'
   '-z, -x+0.2, -y+0.8'
   'z+0.1, -x+0.35, -y+0.85'
   '-z+0.1, x+0.85, y+0.35'
   '-z+0.15, -x+1/4, y+0.3'
   'z+0.05, x+0.95, -y+0.9'
   '-z+0.05, x+0.9, -y+0.95'
   'z+0.15, -x+0.3, y+1/4'
   'y+0.2, z, x+0.8'
   '-y+0.8, -z, -x+0.2'
   '-y+0.85, z+0.1, -x+0.35'
   'y+0.35, -z+0.1, x+0.85'
   'y+0.3, -z+0.15, -x+1/4'
   '-y+0.9, z+0.05, x+0.95'
   '-y+0.95, -z+0.05, x+0.9'
   'y+1/4, z+0.15, -x+0.3'
   'y+0.35, x+0.85, -z+0.1'
   '-y+0.85, -x+0.35, z+0.1'
   '-y+0.8, -x+0.2, -z'
   'y+0.2, x+0.8, z'
   'y+1/4, -x+0.3, z+0.15'
   '-y+0.95, x+0.9, -z+0.05'
   '-y+0.9, x+0.95, z+0.05'
   'y+0.3, -x+1/4, -z+0.15'
   'x+0.95, z+0.05, -y+0.9'
   '-x+1/4, -z+0.15, y+0.3'
   '-x+0.3, z+0.15, y+1/4'
   'x+0.9, -z+0.05, -y+0.95'
   '-x+0.2, -z, -y+0.8'
   'x+0.8, z, y+0.2'
   'x+0.85, -z+0.1, y+0.35'
   '-x+0.35, z+0.1, -y+0.85'
   'z+0.15, y+1/4, -x+0.3'
   '-z+0.05, -y+0.95, x+0.9'
   'z+0.05, -y+0.9, x+0.95'
   '-z+0.15, y+0.3, -x+1/4'
   '-z+0.1, y+0.35, x+0.85'
   'z+0.1, -y+0.85, -x+0.35'
   '-z, -y+0.8, -x+0.2'
   'z, y+0.2, x+0.8'
   'x+0.8, y+0.3, z+0.1'
   '-x+0.2, -y+0.9, -z+0.1'
   '-x+0.35, -y+0.95, z'
   'x+0.85, y+1/4, -z'
   '-x+1/4, y+0.2, -z+0.05'
   'x+0.95, -y+0.8, z+0.15'
   'x+0.9, -y+0.85, -z+0.15'
   '-x+0.3, y+0.35, z+0.05'
   'z, x+0.9, y+0.3'
   '-z, -x+0.3, -y+0.9'
   'z+0.1, -x+1/4, -y+0.95'
   '-z+0.1, x+0.95, y+1/4'
   '-z+0.15, -x+0.35, y+0.2'
   'z+0.05, x+0.85, -y+0.8'
   '-z+0.05, x+0.8, -y+0.85'
   'z+0.15, -x+0.2, y+0.35'
   'y+0.2, z+0.1, x+0.9'
   '-y+0.8, -z+0.1, -x+0.3'
   '-y+0.85, z, -x+1/4'
   'y+0.35, -z, x+0.95'
   'y+0.3, -z+0.05, -x+0.35'
   '-y+0.9, z+0.15, x+0.85'
   '-y+0.95, -z+0.15, x+0.8'
   'y+1/4, z+0.05, -x+0.2'
   'y+0.35, x+0.95, -z'
   '-y+0.85, -x+1/4, z'
   '-y+0.8, -x+0.3, -z+0.1'
   'y+0.2, x+0.9, z+0.1'
   'y+1/4, -x+0.2, z+0.05'
   '-y+0.95, x+0.8, -z+0.15'
   '-y+0.9, x+0.85, z+0.15'
   'y+0.3, -x+0.35, -z+0.05'
   'x+0.95, z+0.15, -y+0.8'
   '-x+1/4, -z+0.05, y+0.2'
   '-x+0.3, z+0.05, y+0.35'
   'x+0.9, -z+0.15, -y+0.85'
   '-x+0.2, -z+0.1, -y+0.9'
   'x+0.8, z+0.1, y+0.3'
   'x+0.85, -z, y+1/4'
   '-x+0.35, z, -y+0.95'
   'z+0.15, y+0.35, -x+0.2'
   '-z+0.05, -y+0.85, x+0.8'
   'z+0.05, -y+0.8, x+0.85'
   '-z+0.15, y+0.2, -x+0.35'
   '-z+0.1, y+1/4, x+0.95'
   'z+0.1, -y+0.95, -x+1/4'
   '-z, -y+0.9, -x+0.3'
   'z, y+0.3, x+0.9'
   'x+0.9, y+0.2, z+0.1'
   '-x+0.3, -y+0.8, -z+0.1'
   '-x+1/4, -y+0.85, z'
   'x+0.95, y+0.35, -z'
   '-x+0.35, y+0.3, -z+0.05'
   'x+0.85, -y+0.9, z+0.15'
   'x+0.8, -y+0.95, -z+0.15'
   '-x+0.2, y+1/4, z+0.05'
   'z+0.1, x+0.8, y+0.3'
   '-z+0.1, -x+0.2, -y+0.9'
   'z, -x+0.35, -y+0.95'
   '-z, x+0.85, y+1/4'
   '-z+0.05, -x+1/4, y+0.2'
   'z+0.15, x+0.95, -y+0.8'
   '-z+0.15, x+0.9, -y+0.85'
   'z+0.05, -x+0.3, y+0.35'
   'y+0.3, z, x+0.9'
   '-y+0.9, -z, -x+0.3'
   '-y+0.95, z+0.1, -x+1/4'
   'y+1/4, -z+0.1, x+0.95'
   'y+0.2, -z+0.15, -x+0.35'
   '-y+0.8, z+0.05, x+0.85'
   '-y+0.85, -z+0.05, x+0.8'
   'y+0.35, z+0.15, -x+0.2'
   'y+1/4, x+0.85, -z'
   '-y+0.95, -x+0.35, z'
   '-y+0.9, -x+0.2, -z+0.1'
   'y+0.3, x+0.8, z+0.1'
   'y+0.35, -x+0.3, z+0.05'
   '-y+0.85, x+0.9, -z+0.15'
   '-y+0.8, x+0.95, z+0.15'
   'y+0.2, -x+1/4, -z+0.05'
   'x+0.85, z+0.05, -y+0.8'
   '-x+0.35, -z+0.15, y+0.2'
   '-x+0.2, z+0.15, y+0.35'
   'x+0.8, -z+0.05, -y+0.85'
   '-x+0.3, -z, -y+0.9'
   'x+0.9, z, y+0.3'
   'x+0.95, -z+0.1, y+1/4'
   '-x+1/4, z+0.1, -y+0.95'
   'z+0.05, y+1/4, -x+0.2'
   '-z+0.15, -y+0.95, x+0.8'
   'z+0.15, -y+0.9, x+0.85'
   '-z+0.05, y+0.3, -x+0.35'
   '-z, y+0.35, x+0.95'
   'z, -y+0.85, -x+1/4'
   '-z+0.1, -y+0.8, -x+0.3'
   'z+0.1, y+0.2, x+0.9'
   'x+0.9, y+0.3, z'
   '-x+0.3, -y+0.9, -z'
   '-x+1/4, -y+0.95, z+0.1'
   'x+0.95, y+1/4, -z+0.1'
   '-x+0.35, y+0.2, -z+0.15'
   'x+0.85, -y+0.8, z+0.05'
   'x+0.8, -y+0.85, -z+0.05'
   '-x+0.2, y+0.35, z+0.15'
   'z+0.1, x+0.9, y+0.2'
   '-z+0.1, -x+0.3, -y+0.8'
   'z, -x+1/4, -y+0.85'
   '-z, x+0.95, y+0.35'
   '-z+0.05, -x+0.35, y+0.3'
   'z+0.15, x+0.85, -y+0.9'
   '-z+0.15, x+0.8, -y+0.95'
   'z+0.05, -x+0.2, y+1/4'
   'y+0.3, z+0.1, x+0.8'
   '-y+0.9, -z+0.1, -x+0.2'
   '-y+0.95, z, -x+0.35'
   'y+1/4, -z, x+0.85'
   'y+0.2, -z+0.05, -x+1/4'
   '-y+0.8, z+0.15, x+0.95'
   '-y+0.85, -z+0.15, x+0.9'
   'y+0.35, z+0.05, -x+0.3'
   'y+1/4, x+0.95, -z+0.1'
   '-y+0.95, -x+1/4, z+0.1'
   '-y+0.9, -x+0.3, -z'
   'y+0.3, x+0.9, z'
   'y+0.35, -x+0.2, z+0.15'
   '-y+0.85, x+0.8, -z+0.05'
   '-y+0.8, x+0.85, z+0.05'
   'y+0.2, -x+0.35, -z+0.15'
   'x+0.85, z+0.15, -y+0.9'
   '-x+0.35, -z+0.05, y+0.3'
   '-x+0.2, z+0.05, y+1/4'
   'x+0.8, -z+0.15, -y+0.95'
   '-x+0.3, -z+0.1, -y+0.8'
   'x+0.9, z+0.1, y+0.2'
   'x+0.95, -z, y+0.35'
   '-x+1/4, z, -y+0.85'
   'z+0.05, y+0.35, -x+0.3'
   '-z+0.15, -y+0.85, x+0.9'
   'z+0.15, -y+0.8, x+0.95'
   '-z+0.05, y+0.2, -x+1/4'
   '-z, y+1/4, x+0.85'
   'z, -y+0.95, -x+0.35'
   '-z+0.1, -y+0.9, -x+0.2'
   'z+0.1, y+0.3, x+0.8'
   'x+0.8, y+0.2, z+0.2'
   '-x+0.2, -y+0.8, -z+0.8'
   '-x+0.35, -y+0.85, z+0.3'
   'x+0.85, y+0.35, -z+0.9'
   '-x+1/4, y+0.3, -z+0.95'
   'x+0.95, -y+0.9, z+1/4'
   'x+0.9, -y+0.95, -z+0.85'
   '-x+0.3, y+1/4, z+0.35'
   'z+0.2, x+0.8, y+0.2'
   '-z+0.8, -x+0.2, -y+0.8'
   'z+0.3, -x+0.35, -y+0.85'
   '-z+0.9, x+0.85, y+0.35'
   '-z+0.95, -x+1/4, y+0.3'
   'z+1/4, x+0.95, -y+0.9'
   '-z+0.85, x+0.9, -y+0.95'
   'z+0.35, -x+0.3, y+1/4'
   'y+0.2, z+0.2, x+0.8'
   '-y+0.8, -z+0.8, -x+0.2'
   '-y+0.85, z+0.3, -x+0.35'
   'y+0.35, -z+0.9, x+0.85'
   'y+0.3, -z+0.95, -x+1/4'
   '-y+0.9, z+1/4, x+0.95'
   '-y+0.95, -z+0.85, x+0.9'
   'y+1/4, z+0.35, -x+0.3'
   'y+0.35, x+0.85, -z+0.9'
   '-y+0.85, -x+0.35, z+0.3'
   '-y+0.8, -x+0.2, -z+0.8'
   'y+0.2, x+0.8, z+0.2'
   'y+1/4, -x+0.3, z+0.35'
   '-y+0.95, x+0.9, -z+0.85'
   '-y+0.9, x+0.95, z+1/4'
   'y+0.3, -x+1/4, -z+0.95'
   'x+0.95, z+1/4, -y+0.9'
   '-x+1/4, -z+0.95, y+0.3'
   '-x+0.3, z+0.35, y+1/4'
   'x+0.9, -z+0.85, -y+0.95'
   '-x+0.2, -z+0.8, -y+0.8'
   'x+0.8, z+0.2, y+0.2'
   'x+0.85, -z+0.9, y+0.35'
   '-x+0.35, z+0.3, -y+0.85'
   'z+0.35, y+1/4, -x+0.3'
   '-z+0.85, -y+0.95, x+0.9'
   'z+1/4, -y+0.9, x+0.95'
   '-z+0.95, y+0.3, -x+1/4'
   '-z+0.9, y+0.35, x+0.85'
   'z+0.3, -y+0.85, -x+0.35'
   '-z+0.8, -y+0.8, -x+0.2'
   'z+0.2, y+0.2, x+0.8'
   'x+0.8, y+0.3, z+0.3'
   '-x+0.2, -y+0.9, -z+0.9'
   '-x+0.35, -y+0.95, z+0.2'
   'x+0.85, y+1/4, -z+0.8'
   '-x+1/4, y+0.2, -z+0.85'
   'x+0.95, -y+0.8, z+0.35'
   'x+0.9, -y+0.85, -z+0.95'
   '-x+0.3, y+0.35, z+1/4'
   'z+0.2, x+0.9, y+0.3'
   '-z+0.8, -x+0.3, -y+0.9'
   'z+0.3, -x+1/4, -y+0.95'
   '-z+0.9, x+0.95, y+1/4'
   '-z+0.95, -x+0.35, y+0.2'
   'z+1/4, x+0.85, -y+0.8'
   '-z+0.85, x+0.8, -y+0.85'
   'z+0.35, -x+0.2, y+0.35'
   'y+0.2, z+0.3, x+0.9'
   '-y+0.8, -z+0.9, -x+0.3'
   '-y+0.85, z+0.2, -x+1/4'
   'y+0.35, -z+0.8, x+0.95'
   'y+0.3, -z+0.85, -x+0.35'
   '-y+0.9, z+0.35, x+0.85'
   '-y+0.95, -z+0.95, x+0.8'
   'y+1/4, z+1/4, -x+0.2'
   'y+0.35, x+0.95, -z+0.8'
   '-y+0.85, -x+1/4, z+0.2'
   '-y+0.8, -x+0.3, -z+0.9'
   'y+0.2, x+0.9, z+0.3'
   'y+1/4, -x+0.2, z+1/4'
   '-y+0.95, x+0.8, -z+0.95'
   '-y+0.9, x+0.85, z+0.35'
   'y+0.3, -x+0.35, -z+0.85'
   'x+0.95, z+0.35, -y+0.8'
   '-x+1/4, -z+0.85, y+0.2'
   '-x+0.3, z+1/4, y+0.35'
   'x+0.9, -z+0.95, -y+0.85'
   '-x+0.2, -z+0.9, -y+0.9'
   'x+0.8, z+0.3, y+0.3'
   'x+0.85, -z+0.8, y+1/4'
   '-x+0.35, z+0.2, -y+0.95'
   'z+0.35, y+0.35, -x+0.2'
   '-z+0.85, -y+0.85, x+0.8'
   'z+1/4, -y+0.8, x+0.85'
   '-z+0.95, y+0.2, -x+0.35'
   '-z+0.9, y+1/4, x+0.95'
   'z+0.3, -y+0.95, -x+1/4'
   '-z+0.8, -y+0.9, -x+0.3'
   'z+0.2, y+0.3, x+0.9'
   'x+0.9, y+0.2, z+0.3'
   '-x+0.3, -y+0.8, -z+0.9'
   '-x+1/4, -y+0.85, z+0.2'
   'x+0.95, y+0.35, -z+0.8'
   '-x+0.35, y+0.3, -z+0.85'
   'x+0.85, -y+0.9, z+0.35'
   'x+0.8, -y+0.95, -z+0.95'
   '-x+0.2, y+1/4, z+1/4'
   'z+0.3, x+0.8, y+0.3'
   '-z+0.9, -x+0.2, -y+0.9'
   'z+0.2, -x+0.35, -y+0.95'
   '-z+0.8, x+0.85, y+1/4'
   '-z+0.85, -x+1/4, y+0.2'
   'z+0.35, x+0.95, -y+0.8'
   '-z+0.95, x+0.9, -y+0.85'
   'z+1/4, -x+0.3, y+0.35'
   'y+0.3, z+0.2, x+0.9'
   '-y+0.9, -z+0.8, -x+0.3'
   '-y+0.95, z+0.3, -x+1/4'
   'y+1/4, -z+0.9, x+0.95'
   'y+0.2, -z+0.95, -x+0.35'
   '-y+0.8, z+1/4, x+0.85'
   '-y+0.85, -z+0.85, x+0.8'
   'y+0.35, z+0.35, -x+0.2'
   'y+1/4, x+0.85, -z+0.8'
   '-y+0.95, -x+0.35, z+0.2'
   '-y+0.9, -x+0.2, -z+0.9'
   'y+0.3, x+0.8, z+0.3'
   'y+0.35, -x+0.3, z+1/4'
   '-y+0.85, x+0.9, -z+0.95'
   '-y+0.8, x+0.95, z+0.35'
   'y+0.2, -x+1/4, -z+0.85'
   'x+0.85, z+1/4, -y+0.8'
   '-x+0.35, -z+0.95, y+0.2'
   '-x+0.2, z+0.35, y+0.35'
   'x+0.8, -z+0.85, -y+0.85'
   '-x+0.3, -z+0.8, -y+0.9'
   'x+0.9, z+0.2, y+0.3'
   'x+0.95, -z+0.9, y+1/4'
   '-x+1/4, z+0.3, -y+0.95'
   'z+1/4, y+1/4, -x+0.2'
   '-z+0.95, -y+0.95, x+0.8'
   'z+0.35, -y+0.9, x+0.85'
   '-z+0.85, y+0.3, -x+0.35'
   '-z+0.8, y+0.35, x+0.95'
   'z+0.2, -y+0.85, -x+1/4'
   '-z+0.9, -y+0.8, -x+0.3'
   'z+0.3, y+0.2, x+0.9'
   'x+0.9, y+0.3, z+0.2'
   '-x+0.3, -y+0.9, -z+0.8'
   '-x+1/4, -y+0.95, z+0.3'
   'x+0.95, y+1/4, -z+0.9'
   '-x+0.35, y+0.2, -z+0.95'
   'x+0.85, -y+0.8, z+1/4'
   'x+0.8, -y+0.85, -z+0.85'
   '-x+0.2, y+0.35, z+0.35'
   'z+0.3, x+0.9, y+0.2'
   '-z+0.9, -x+0.3, -y+0.8'
   'z+0.2, -x+1/4, -y+0.85'
   '-z+0.8, x+0.95, y+0.35'
   '-z+0.85, -x+0.35, y+0.3'
   'z+0.35, x+0.85, -y+0.9'
   '-z+0.95, x+0.8, -y+0.95'
   'z+1/4, -x+0.2, y+1/4'
   'y+0.3, z+0.3, x+0.8'
   '-y+0.9, -z+0.9, -x+0.2'
   '-y+0.95, z+0.2, -x+0.35'
   'y+1/4, -z+0.8, x+0.85'
   'y+0.2, -z+0.85, -x+1/4'
   '-y+0.8, z+0.35, x+0.95'
   '-y+0.85, -z+0.95, x+0.9'
   'y+0.35, z+1/4, -x+0.3'
   'y+1/4, x+0.95, -z+0.9'
   '-y+0.95, -x+1/4, z+0.3'
   '-y+0.9, -x+0.3, -z+0.8'
   'y+0.3, x+0.9, z+0.2'
   'y+0.35, -x+0.2, z+0.35'
   '-y+0.85, x+0.8, -z+0.85'
   '-y+0.8, x+0.85, z+1/4'
   'y+0.2, -x+0.35, -z+0.95'
   'x+0.85, z+0.35, -y+0.9'
   '-x+0.35, -z+0.85, y+0.3'
   '-x+0.2, z+1/4, y+1/4'
   'x+0.8, -z+0.95, -y+0.95'
   '-x+0.3, -z+0.9, -y+0.8'
   'x+0.9, z+0.3, y+0.2'
   'x+0.95, -z+0.8, y+0.35'
   '-x+1/4, z+0.2, -y+0.85'
   'z+1/4, y+0.35, -x+0.3'
   '-z+0.95, -y+0.85, x+0.9'
   'z+0.35, -y+0.8, x+0.95'
   '-z+0.85, y+0.2, -x+1/4'
   '-z+0.8, y+1/4, x+0.85'
   'z+0.2, -y+0.95, -x+0.35'
   '-z+0.9, -y+0.9, -x+0.2'
   'z+0.3, y+0.3, x+0.8'
   'x+0.8, y+0.2, z+0.4'
   '-x+0.2, -y+0.8, -z+0.6'
   '-x+0.35, -y+0.85, z+1/2'
   'x+0.85, y+0.35, -z+0.7'
   '-x+1/4, y+0.3, -z+3/4'
   'x+0.95, -y+0.9, z+0.45'
   'x+0.9, -y+0.95, -z+0.65'
   '-x+0.3, y+1/4, z+0.55'
   'z+0.4, x+0.8, y+0.2'
   '-z+0.6, -x+0.2, -y+0.8'
   'z+1/2, -x+0.35, -y+0.85'
   '-z+0.7, x+0.85, y+0.35'
   '-z+3/4, -x+1/4, y+0.3'
   'z+0.45, x+0.95, -y+0.9'
   '-z+0.65, x+0.9, -y+0.95'
   'z+0.55, -x+0.3, y+1/4'
   'y+0.2, z+0.4, x+0.8'
   '-y+0.8, -z+0.6, -x+0.2'
   '-y+0.85, z+1/2, -x+0.35'
   'y+0.35, -z+0.7, x+0.85'
   'y+0.3, -z+3/4, -x+1/4'
   '-y+0.9, z+0.45, x+0.95'
   '-y+0.95, -z+0.65, x+0.9'
   'y+1/4, z+0.55, -x+0.3'
   'y+0.35, x+0.85, -z+0.7'
   '-y+0.85, -x+0.35, z+1/2'
   '-y+0.8, -x+0.2, -z+0.6'
   'y+0.2, x+0.8, z+0.4'
   'y+1/4, -x+0.3, z+0.55'
   '-y+0.95, x+0.9, -z+0.65'
   '-y+0.9, x+0.95, z+0.45'
   'y+0.3, -x+1/4, -z+3/4'
   'x+0.95, z+0.45, -y+0.9'
   '-x+1/4, -z+3/4, y+0.3'
   '-x+0.3, z+0.55, y+1/4'
   'x+0.9, -z+0.65, -y+0.95'
   '-x+0.2, -z+0.6, -y+0.8'
   'x+0.8, z+0.4, y+0.2'
   'x+0.85, -z+0.7, y+0.35'
   '-x+0.35, z+1/2, -y+0.85'
   'z+0.55, y+1/4, -x+0.3'
   '-z+0.65, -y+0.95, x+0.9'
   'z+0.45, -y+0.9, x+0.95'
   '-z+3/4, y+0.3, -x+1/4'
   '-z+0.7, y+0.35, x+0.85'
   'z+1/2, -y+0.85, -x+0.35'
   '-z+0.6, -y+0.8, -x+0.2'
   'z+0.4, y+0.2, x+0.8'
   'x+0.8, y+0.3, z+1/2'
   '-x+0.2, -y+0.9, -z+0.7'
   '-x+0.35, -y+0.95, z+0.4'
   'x+0.85, y+1/4, -z+0.6'
   '-x+1/4, y+0.2, -z+0.65'
   'x+0.95, -y+0.8, z+0.55'
   'x+0.9, -y+0.85, -z+3/4'
   '-x+0.3, y+0.35, z+0.45'
   'z+0.4, x+0.9, y+0.3'
   '-z+0.6, -x+0.3, -y+0.9'
   'z+1/2, -x+1/4, -y+0.95'
   '-z+0.7, x+0.95, y+1/4'
   '-z+3/4, -x+0.35, y+0.2'
   'z+0.45, x+0.85, -y+0.8'
   '-z+0.65, x+0.8, -y+0.85'
   'z+0.55, -x+0.2, y+0.35'
   'y+0.2, z+1/2, x+0.9'
   '-y+0.8, -z+0.7, -x+0.3'
   '-y+0.85, z+0.4, -x+1/4'
   'y+0.35, -z+0.6, x+0.95'
   'y+0.3, -z+0.65, -x+0.35'
   '-y+0.9, z+0.55, x+0.85'
   '-y+0.95, -z+3/4, x+0.8'
   'y+1/4, z+0.45, -x+0.2'
   'y+0.35, x+0.95, -z+0.6'
   '-y+0.85, -x+1/4, z+0.4'
   '-y+0.8, -x+0.3, -z+0.7'
   'y+0.2, x+0.9, z+1/2'
   'y+1/4, -x+0.2, z+0.45'
   '-y+0.95, x+0.8, -z+3/4'
   '-y+0.9, x+0.85, z+0.55'
   'y+0.3, -x+0.35, -z+0.65'
   'x+0.95, z+0.55, -y+0.8'
   '-x+1/4, -z+0.65, y+0.2'
   '-x+0.3, z+0.45, y+0.35'
   'x+0.9, -z+3/4, -y+0.85'
   '-x+0.2, -z+0.7, -y+0.9'
   'x+0.8, z+1/2, y+0.3'
   'x+0.85, -z+0.6, y+1/4'
   '-x+0.35, z+0.4, -y+0.95'
   'z+0.55, y+0.35, -x+0.2'
   '-z+0.65, -y+0.85, x+0.8'
   'z+0.45, -y+0.8, x+0.85'
   '-z+3/4, y+0.2, -x+0.35'
   '-z+0.7, y+1/4, x+0.95'
   'z+1/2, -y+0.95, -x+1/4'
   '-z+0.6, -y+0.9, -x+0.3'
   'z+0.4, y+0.3, x+0.9'
   'x+0.9, y+0.2, z+1/2'
   '-x+0.3, -y+0.8, -z+0.7'
   '-x+1/4, -y+0.85, z+0.4'
   'x+0.95, y+0.35, -z+0.6'
   '-x+0.35, y+0.3, -z+0.65'
   'x+0.85, -y+0.9, z+0.55'
   'x+0.8, -y+0.95, -z+3/4'
   '-x+0.2, y+1/4, z+0.45'
   'z+1/2, x+0.8, y+0.3'
   '-z+0.7, -x+0.2, -y+0.9'
   'z+0.4, -x+0.35, -y+0.95'
   '-z+0.6, x+0.85, y+1/4'
   '-z+0.65, -x+1/4, y+0.2'
   'z+0.55, x+0.95, -y+0.8'
   '-z+3/4, x+0.9, -y+0.85'
   'z+0.45, -x+0.3, y+0.35'
   'y+0.3, z+0.4, x+0.9'
   '-y+0.9, -z+0.6, -x+0.3'
   '-y+0.95, z+1/2, -x+1/4'
   'y+1/4, -z+0.7, x+0.95'
   'y+0.2, -z+3/4, -x+0.35'
   '-y+0.8, z+0.45, x+0.85'
   '-y+0.85, -z+0.65, x+0.8'
   'y+0.35, z+0.55, -x+0.2'
   'y+1/4, x+0.85, -z+0.6'
   '-y+0.95, -x+0.35, z+0.4'
   '-y+0.9, -x+0.2, -z+0.7'
   'y+0.3, x+0.8, z+1/2'
   'y+0.35, -x+0.3, z+0.45'
   '-y+0.85, x+0.9, -z+3/4'
   '-y+0.8, x+0.95, z+0.55'
   'y+0.2, -x+1/4, -z+0.65'
   'x+0.85, z+0.45, -y+0.8'
   '-x+0.35, -z+3/4, y+0.2'
   '-x+0.2, z+0.55, y+0.35'
   'x+0.8, -z+0.65, -y+0.85'
   '-x+0.3, -z+0.6, -y+0.9'
   'x+0.9, z+0.4, y+0.3'
   'x+0.95, -z+0.7, y+1/4'
   '-x+1/4, z+1/2, -y+0.95'
   'z+0.45, y+1/4, -x+0.2'
   '-z+3/4, -y+0.95, x+0.8'
   'z+0.55, -y+0.9, x+0.85'
   '-z+0.65, y+0.3, -x+0.35'
   '-z+0.6, y+0.35, x+0.95'
   'z+0.4, -y+0.85, -x+1/4'
   '-z+0.7, -y+0.8, -x+0.3'
   'z+1/2, y+0.2, x+0.9'
   'x+0.9, y+0.3, z+0.4'
   '-x+0.3, -y+0.9, -z+0.6'
   '-x+1/4, -y+0.95, z+1/2'
   'x+0.95, y+1/4, -z+0.7'
   '-x+0.35, y+0.2, -z+3/4'
   'x+0.85, -y+0.8, z+0.45'
   'x+0.8, -y+0.85, -z+0.65'
   '-x+0.2, y+0.35, z+0.55'
   'z+1/2, x+0.9, y+0.2'
   '-z+0.7, -x+0.3, -y+0.8'
   'z+0.4, -x+1/4, -y+0.85'
   '-z+0.6, x+0.95, y+0.35'
   '-z+0.65, -x+0.35, y+0.3'
   'z+0.55, x+0.85, -y+0.9'
   '-z+3/4, x+0.8, -y+0.95'
   'z+0.45, -x+0.2, y+1/4'
   'y+0.3, z+1/2, x+0.8'
   '-y+0.9, -z+0.7, -x+0.2'
   '-y+0.95, z+0.4, -x+0.35'
   'y+1/4, -z+0.6, x+0.85'
   'y+0.2, -z+0.65, -x+1/4'
   '-y+0.8, z+0.55, x+0.95'
   '-y+0.85, -z+3/4, x+0.9'
   'y+0.35, z+0.45, -x+0.3'
   'y+1/4, x+0.95, -z+0.7'
   '-y+0.95, -x+1/4, z+1/2'
   '-y+0.9, -x+0.3, -z+0.6'
   'y+0.3, x+0.9, z+0.4'
   'y+0.35, -x+0.2, z+0.55'
   '-y+0.85, x+0.8, -z+0.65'
   '-y+0.8, x+0.85, z+0.45'
   'y+0.2, -x+0.35, -z+3/4'
   'x+0.85, z+0.55, -y+0.9'
   '-x+0.35, -z+0.65, y+0.3'
   '-x+0.2, z+0.45, y+1/4'
   'x+0.8, -z+3/4, -y+0.95'
   '-x+0.3, -z+0.7, -y+0.8'
   'x+0.9, z+1/2, y+0.2'
   'x+0.95, -z+0.6, y+0.35'
   '-x+1/4, z+0.4, -y+0.85'
   'z+0.45, y+0.35, -x+0.3'
   '-z+3/4, -y+0.85, x+0.9'
   'z+0.55, -y+0.8, x+0.95'
   '-z+0.65, y+0.2, -x+1/4'
   '-z+0.6, y+1/4, x+0.85'
   'z+0.4, -y+0.95, -x+0.35'
   '-z+0.7, -y+0.9, -x+0.2'
   'z+1/2, y+0.3, x+0.8'
   'x+0.8, y+0.2, z+0.6'
   '-x+0.2, -y+0.8, -z+0.4'
   '-x+0.35, -y+0.85, z+0.7'
   'x+0.85, y+0.35, -z+1/2'
   '-x+1/4, y+0.3, -z+0.55'
   'x+0.95, -y+0.9, z+0.65'
   'x+0.9, -y+0.95, -z+0.45'
   '-x+0.3, y+1/4, z+3/4'
   'z+0.6, x+0.8, y+0.2'
   '-z+0.4, -x+0.2, -y+0.8'
   'z+0.7, -x+0.35, -y+0.85'
   '-z+1/2, x+0.85, y+0.35'
   '-z+0.55, -x+1/4, y+0.3'
   'z+0.65, x+0.95, -y+0.9'
   '-z+0.45, x+0.9, -y+0.95'
   'z+3/4, -x+0.3, y+1/4'
   'y+0.2, z+0.6, x+0.8'
   '-y+0.8, -z+0.4, -x+0.2'
   '-y+0.85, z+0.7, -x+0.35'
   'y+0.35, -z+1/2, x+0.85'
   'y+0.3, -z+0.55, -x+1/4'
   '-y+0.9, z+0.65, x+0.95'
   '-y+0.95, -z+0.45, x+0.9'
   'y+1/4, z+3/4, -x+0.3'
   'y+0.35, x+0.85, -z+1/2'
   '-y+0.85, -x+0.35, z+0.7'
   '-y+0.8, -x+0.2, -z+0.4'
   'y+0.2, x+0.8, z+0.6'
   'y+1/4, -x+0.3, z+3/4'
   '-y+0.95, x+0.9, -z+0.45'
   '-y+0.9, x+0.95, z+0.65'
   'y+0.3, -x+1/4, -z+0.55'
   'x+0.95, z+0.65, -y+0.9'
   '-x+1/4, -z+0.55, y+0.3'
   '-x+0.3, z+3/4, y+1/4'
   'x+0.9, -z+0.45, -y+0.95'
   '-x+0.2, -z+0.4, -y+0.8'
   'x+0.8, z+0.6, y+0.2'
   'x+0.85, -z+1/2, y+0.35'
   '-x+0.35, z+0.7, -y+0.85'
   'z+3/4, y+1/4, -x+0.3'
   '-z+0.45, -y+0.95, x+0.9'
   'z+0.65, -y+0.9, x+0.95'
   '-z+0.55, y+0.3, -x+1/4'
   '-z+1/2, y+0.35, x+0.85'
   'z+0.7, -y+0.85, -x+0.35'
   '-z+0.4, -y+0.8, -x+0.2'
   'z+0.6, y+0.2, x+0.8'
   'x+0.8, y+0.3, z+0.7'
   '-x+0.2, -y+0.9, -z+1/2'
   '-x+0.35, -y+0.95, z+0.6'
   'x+0.85, y+1/4, -z+0.4'
   '-x+1/4, y+0.2, -z+0.45'
   'x+0.95, -y+0.8, z+3/4'
   'x+0.9, -y+0.85, -z+0.55'
   '-x+0.3, y+0.35, z+0.65'
   'z+0.6, x+0.9, y+0.3'
   '-z+0.4, -x+0.3, -y+0.9'
   'z+0.7, -x+1/4, -y+0.95'
   '-z+1/2, x+0.95, y+1/4'
   '-z+0.55, -x+0.35, y+0.2'
   'z+0.65, x+0.85, -y+0.8'
   '-z+0.45, x+0.8, -y+0.85'
   'z+3/4, -x+0.2, y+0.35'
   'y+0.2, z+0.7, x+0.9'
   '-y+0.8, -z+1/2, -x+0.3'
   '-y+0.85, z+0.6, -x+1/4'
   'y+0.35, -z+0.4, x+0.95'
   'y+0.3, -z+0.45, -x+0.35'
   '-y+0.9, z+3/4, x+0.85'
   '-y+0.95, -z+0.55, x+0.8'
   'y+1/4, z+0.65, -x+0.2'
   'y+0.35, x+0.95, -z+0.4'
   '-y+0.85, -x+1/4, z+0.6'
   '-y+0.8, -x+0.3, -z+1/2'
   'y+0.2, x+0.9, z+0.7'
   'y+1/4, -x+0.2, z+0.65'
   '-y+0.95, x+0.8, -z+0.55'
   '-y+0.9, x+0.85, z+3/4'
   'y+0.3, -x+0.35, -z+0.45'
   'x+0.95, z+3/4, -y+0.8'
   '-x+1/4, -z+0.45, y+0.2'
   '-x+0.3, z+0.65, y+0.35'
   'x+0.9, -z+0.55, -y+0.85'
   '-x+0.2, -z+1/2, -y+0.9'
   'x+0.8, z+0.7, y+0.3'
   'x+0.85, -z+0.4, y+1/4'
   '-x+0.35, z+0.6, -y+0.95'
   'z+3/4, y+0.35, -x+0.2'
   '-z+0.45, -y+0.85, x+0.8'
   'z+0.65, -y+0.8, x+0.85'
   '-z+0.55, y+0.2, -x+0.35'
   '-z+1/2, y+1/4, x+0.95'
   'z+0.7, -y+0.95, -x+1/4'
   '-z+0.4, -y+0.9, -x+0.3'
   'z+0.6, y+0.3, x+0.9'
   'x+0.9, y+0.2, z+0.7'
   '-x+0.3, -y+0.8, -z+1/2'
   '-x+1/4, -y+0.85, z+0.6'
   'x+0.95, y+0.35, -z+0.4'
   '-x+0.35, y+0.3, -z+0.45'
   'x+0.85, -y+0.9, z+3/4'
   'x+0.8, -y+0.95, -z+0.55'
   '-x+0.2, y+1/4, z+0.65'
   'z+0.7, x+0.8, y+0.3'
   '-z+1/2, -x+0.2, -y+0.9'
   'z+0.6, -x+0.35, -y+0.95'
   '-z+0.4, x+0.85, y+1/4'
   '-z+0.45, -x+1/4, y+0.2'
   'z+3/4, x+0.95, -y+0.8'
   '-z+0.55, x+0.9, -y+0.85'
   'z+0.65, -x+0.3, y+0.35'
   'y+0.3, z+0.6, x+0.9'
   '-y+0.9, -z+0.4, -x+0.3'
   '-y+0.95, z+0.7, -x+1/4'
   'y+1/4, -z+1/2, x+0.95'
   'y+0.2, -z+0.55, -x+0.35'
   '-y+0.8, z+0.65, x+0.85'
   '-y+0.85, -z+0.45, x+0.8'
   'y+0.35, z+3/4, -x+0.2'
   'y+1/4, x+0.85, -z+0.4'
   '-y+0.95, -x+0.35, z+0.6'
   '-y+0.9, -x+0.2, -z+1/2'
   'y+0.3, x+0.8, z+0.7'
   'y+0.35, -x+0.3, z+0.65'
   '-y+0.85, x+0.9, -z+0.55'
   '-y+0.8, x+0.95, z+3/4'
   'y+0.2, -x+1/4, -z+0.45'
   'x+0.85, z+0.65, -y+0.8'
   '-x+0.35, -z+0.55, y+0.2'
   '-x+0.2, z+3/4, y+0.35'
   'x+0.8, -z+0.45, -y+0.85'
   '-x+0.3, -z+0.4, -y+0.9'
   'x+0.9, z+0.6, y+0.3'
   'x+0.95, -z+1/2, y+1/4'
   '-x+1/4, z+0.7, -y+0.95'
   'z+0.65, y+1/4, -x+0.2'
   '-z+0.55, -y+0.95, x+0.8'
   'z+3/4, -y+0.9, x+0.85'
   '-z+0.45, y+0.3, -x+0.35'
   '-z+0.4, y+0.35, x+0.95'
   'z+0.6, -y+0.85, -x+1/4'
   '-z+1/2, -y+0.8, -x+0.3'
   'z+0.7, y+0.2, x+0.9'
   'x+0.9, y+0.3, z+0.6'
   '-x+0.3, -y+0.9, -z+0.4'
   '-x+1/4, -y+0.95, z+0.7'
   'x+0.95, y+1/4, -z+1/2'
   '-x+0.35, y+0.2, -z+0.55'
   'x+0.85, -y+0.8, z+0.65'
   'x+0.8, -y+0.85, -z+0.45'
   '-x+0.2, y+0.35, z+3/4'
   'z+0.7, x+0.9, y+0.2'
   '-z+1/2, -x+0.3, -y+0.8'
   'z+0.6, -x+1/4, -y+0.85'
   '-z+0.4, x+0.95, y+0.35'
   '-z+0.45, -x+0.35, y+0.3'
   'z+3/4, x+0.85, -y+0.9'
   '-z+0.55, x+0.8, -y+0.95'
   'z+0.65, -x+0.2, y+1/4'
   'y+0.3, z+0.7, x+0.8'
   '-y+0.9, -z+1/2, -x+0.2'
   '-y+0.95, z+0.6, -x+0.35'
   'y+1/4, -z+0.4, x+0.85'
   'y+0.2, -z+0.45, -x+1/4'
   '-y+0.8, z+3/4, x+0.95'
   '-y+0.85, -z+0.55, x+0.9'
   'y+0.35, z+0.65, -x+0.3'
   'y+1/4, x+0.95, -z+1/2'
   '-y+0.95, -x+1/4, z+0.7'
   '-y+0.9, -x+0.3, -z+0.4'
   'y+0.3, x+0.9, z+0.6'
   'y+0.35, -x+0.2, z+3/4'
   '-y+0.85, x+0.8, -z+0.45'
   '-y+0.8, x+0.85, z+0.65'
   'y+0.2, -x+0.35, -z+0.55'
   'x+0.85, z+3/4, -y+0.9'
   '-x+0.35, -z+0.45, y+0.3'
   '-x+0.2, z+0.65, y+1/4'
   'x+0.8, -z+0.55, -y+0.95'
   '-x+0.3, -z+1/2, -y+0.8'
   'x+0.9, z+0.7, y+0.2'
   'x+0.95, -z+0.4, y+0.35'
   '-x+1/4, z+0.6, -y+0.85'
   'z+0.65, y+0.35, -x+0.3'
   '-z+0.55, -y+0.85, x+0.9'
   'z+3/4, -y+0.8, x+0.95'
   '-z+0.45, y+0.2, -x+1/4'
   '-z+0.4, y+1/4, x+0.85'
   'z+0.6, -y+0.95, -x+0.35'
   '-z+1/2, -y+0.9, -x+0.2'
   'z+0.7, y+0.3, x+0.8'
   'x+0.8, y+0.2, z+0.8'
   '-x+0.2, -y+0.8, -z+0.2'
   '-x+0.35, -y+0.85, z+0.9'
   'x+0.85, y+0.35, -z+0.3'
   '-x+1/4, y+0.3, -z+0.35'
   'x+0.95, -y+0.9, z+0.85'
   'x+0.9, -y+0.95, -z+1/4'
   '-x+0.3, y+1/4, z+0.95'
   'z+0.8, x+0.8, y+0.2'
   '-z+0.2, -x+0.2, -y+0.8'
   'z+0.9, -x+0.35, -y+0.85'
   '-z+0.3, x+0.85, y+0.35'
   '-z+0.35, -x+1/4, y+0.3'
   'z+0.85, x+0.95, -y+0.9'
   '-z+1/4, x+0.9, -y+0.95'
   'z+0.95, -x+0.3, y+1/4'
   'y+0.2, z+0.8, x+0.8'
   '-y+0.8, -z+0.2, -x+0.2'
   '-y+0.85, z+0.9, -x+0.35'
   'y+0.35, -z+0.3, x+0.85'
   'y+0.3, -z+0.35, -x+1/4'
   '-y+0.9, z+0.85, x+0.95'
   '-y+0.95, -z+1/4, x+0.9'
   'y+1/4, z+0.95, -x+0.3'
   'y+0.35, x+0.85, -z+0.3'
   '-y+0.85, -x+0.35, z+0.9'
   '-y+0.8, -x+0.2, -z+0.2'
   'y+0.2, x+0.8, z+0.8'
   'y+1/4, -x+0.3, z+0.95'
   '-y+0.95, x+0.9, -z+1/4'
   '-y+0.9, x+0.95, z+0.85'
   'y+0.3, -x+1/4, -z+0.35'
   'x+0.95, z+0.85, -y+0.9'
   '-x+1/4, -z+0.35, y+0.3'
   '-x+0.3, z+0.95, y+1/4'
   'x+0.9, -z+1/4, -y+0.95'
   '-x+0.2, -z+0.2, -y+0.8'
   'x+0.8, z+0.8, y+0.2'
   'x+0.85, -z+0.3, y+0.35'
   '-x+0.35, z+0.9, -y+0.85'
   'z+0.95, y+1/4, -x+0.3'
   '-z+1/4, -y+0.95, x+0.9'
   'z+0.85, -y+0.9, x+0.95'
   '-z+0.35, y+0.3, -x+1/4'
   '-z+0.3, y+0.35, x+0.85'
   'z+0.9, -y+0.85, -x+0.35'
   '-z+0.2, -y+0.8, -x+0.2'
   'z+0.8, y+0.2, x+0.8'
   'x+0.8, y+0.3, z+0.9'
   '-x+0.2, -y+0.9, -z+0.3'
   '-x+0.35, -y+0.95, z+0.8'
   'x+0.85, y+1/4, -z+0.2'
   '-x+1/4, y+0.2, -z+1/4'
   'x+0.95, -y+0.8, z+0.95'
   'x+0.9, -y+0.85, -z+0.35'
   '-x+0.3, y+0.35, z+0.85'
   'z+0.8, x+0.9, y+0.3'
   '-z+0.2, -x+0.3, -y+0.9'
   'z+0.9, -x+1/4, -y+0.95'
   '-z+0.3, x+0.95, y+1/4'
   '-z+0.35, -x+0.35, y+0.2'
   'z+0.85, x+0.85, -y+0.8'
   '-z+1/4, x+0.8, -y+0.85'
   'z+0.95, -x+0.2, y+0.35'
   'y+0.2, z+0.9, x+0.9'
   '-y+0.8, -z+0.3, -x+0.3'
   '-y+0.85, z+0.8, -x+1/4'
   'y+0.35, -z+0.2, x+0.95'
   'y+0.3, -z+1/4, -x+0.35'
   '-y+0.9, z+0.95, x+0.85'
   '-y+0.95, -z+0.35, x+0.8'
   'y+1/4, z+0.85, -x+0.2'
   'y+0.35, x+0.95, -z+0.2'
   '-y+0.85, -x+1/4, z+0.8'
   '-y+0.8, -x+0.3, -z+0.3'
   'y+0.2, x+0.9, z+0.9'
   'y+1/4, -x+0.2, z+0.85'
   '-y+0.95, x+0.8, -z+0.35'
   '-y+0.9, x+0.85, z+0.95'
   'y+0.3, -x+0.35, -z+1/4'
   'x+0.95, z+0.95, -y+0.8'
   '-x+1/4, -z+1/4, y+0.2'
   '-x+0.3, z+0.85, y+0.35'
   'x+0.9, -z+0.35, -y+0.85'
   '-x+0.2, -z+0.3, -y+0.9'
   'x+0.8, z+0.9, y+0.3'
   'x+0.85, -z+0.2, y+1/4'
   '-x+0.35, z+0.8, -y+0.95'
   'z+0.95, y+0.35, -x+0.2'
   '-z+1/4, -y+0.85, x+0.8'
   'z+0.85, -y+0.8, x+0.85'
   '-z+0.35, y+0.2, -x+0.35'
   '-z+0.3, y+1/4, x+0.95'
   'z+0.9, -y+0.95, -x+1/4'
   '-z+0.2, -y+0.9, -x+0.3'
   'z+0.8, y+0.3, x+0.9'
   'x+0.9, y+0.2, z+0.9'
   '-x+0.3, -y+0.8, -z+0.3'
   '-x+1/4, -y+0.85, z+0.8'
   'x+0.95, y+0.35, -z+0.2'
   '-x+0.35, y+0.3, -z+1/4'
   'x+0.85, -y+0.9, z+0.95'
   'x+0.8, -y+0.95, -z+0.35'
   '-x+0.2, y+1/4, z+0.85'
   'z+0.9, x+0.8, y+0.3'
   '-z+0.3, -x+0.2, -y+0.9'
   'z+0.8, -x+0.35, -y+0.95'
   '-z+0.2, x+0.85, y+1/4'
   '-z+1/4, -x+1/4, y+0.2'
   'z+0.95, x+0.95, -y+0.8'
   '-z+0.35, x+0.9, -y+0.85'
   'z+0.85, -x+0.3, y+0.35'
   'y+0.3, z+0.8, x+0.9'
   '-y+0.9, -z+0.2, -x+0.3'
   '-y+0.95, z+0.9, -x+1/4'
   'y+1/4, -z+0.3, x+0.95'
   'y+0.2, -z+0.35, -x+0.35'
   '-y+0.8, z+0.85, x+0.85'
   '-y+0.85, -z+1/4, x+0.8'
   'y+0.35, z+0.95, -x+0.2'
   'y+1/4, x+0.85, -z+0.2'
   '-y+0.95, -x+0.35, z+0.8'
   '-y+0.9, -x+0.2, -z+0.3'
   'y+0.3, x+0.8, z+0.9'
   'y+0.35, -x+0.3, z+0.85'
   '-y+0.85, x+0.9, -z+0.35'
   '-y+0.8, x+0.95, z+0.95'
   'y+0.2, -x+1/4, -z+1/4'
   'x+0.85, z+0.85, -y+0.8'
   '-x+0.35, -z+0.35, y+0.2'
   '-x+0.2, z+0.95, y+0.35'
   'x+0.8, -z+1/4, -y+0.85'
   '-x+0.3, -z+0.2, -y+0.9'
   'x+0.9, z+0.8, y+0.3'
   'x+0.95, -z+0.3, y+1/4'
   '-x+1/4, z+0.9, -y+0.95'
   'z+0.85, y+1/4, -x+0.2'
   '-z+0.35, -y+0.95, x+0.8'
   'z+0.95, -y+0.9, x+0.85'
   '-z+1/4, y+0.3, -x+0.35'
   '-z+0.2, y+0.35, x+0.95'
   'z+0.8, -y+0.85, -x+1/4'
   '-z+0.3, -y+0.8, -x+0.3'
   'z+0.9, y+0.2, x+0.9'
   'x+0.9, y+0.3, z+0.8'
   '-x+0.3, -y+0.9, -z+0.2'
   '-x+1/4, -y+0.95, z+0.9'
   'x+0.95, y+1/4, -z+0.3'
   '-x+0.35, y+0.2, -z+0.35'
   'x+0.85, -y+0.8, z+0.85'
   'x+0.8, -y+0.85, -z+1/4'
   '-x+0.2, y+0.35, z+0.95'
   'z+0.9, x+0.9, y+0.2'
   '-z+0.3, -x+0.3, -y+0.8'
   'z+0.8, -x+1/4, -y+0.85'
   '-z+0.2, x+0.95, y+0.35'
   '-z+1/4, -x+0.35, y+0.3'
   'z+0.95, x+0.85, -y+0.9'
   '-z+0.35, x+0.8, -y+0.95'
   'z+0.85, -x+0.2, y+1/4'
   'y+0.3, z+0.9, x+0.8'
   '-y+0.9, -z+0.3, -x+0.2'
   '-y+0.95, z+0.8, -x+0.35'
   'y+1/4, -z+0.2, x+0.85'
   'y+0.2, -z+1/4, -x+1/4'
   '-y+0.8, z+0.95, x+0.95'
   '-y+0.85, -z+0.35, x+0.9'
   'y+0.35, z+0.85, -x+0.3'
   'y+1/4, x+0.95, -z+0.3'
   '-y+0.95, -x+1/4, z+0.9'
   '-y+0.9, -x+0.3, -z+0.2'
   'y+0.3, x+0.9, z+0.8'
   'y+0.35, -x+0.2, z+0.95'
   '-y+0.85, x+0.8, -z+1/4'
   '-y+0.8, x+0.85, z+0.85'
   'y+0.2, -x+0.35, -z+0.35'
   'x+0.85, z+0.95, -y+0.9'
   '-x+0.35, -z+1/4, y+0.3'
   '-x+0.2, z+0.85, y+1/4'
   'x+0.8, -z+0.35, -y+0.95'
   '-x+0.3, -z+0.3, -y+0.8'
   'x+0.9, z+0.9, y+0.2'
   'x+0.95, -z+0.2, y+0.35'
   '-x+1/4, z+0.8, -y+0.85'
   'z+0.85, y+0.35, -x+0.3'
   '-z+0.35, -y+0.85, x+0.9'
   'z+0.95, -y+0.8, x+0.95'
   '-z+1/4, y+0.2, -x+1/4'
   '-z+0.2, y+1/4, x+0.85'
   'z+0.8, -y+0.95, -x+0.35'
   '-z+0.3, -y+0.9, -x+0.2'
   'z+0.9, y+0.3, x+0.8'
   'x+0.8, y+0.4, z'
   '-x+0.2, -y+0.6, -z'
   '-x+0.35, -y+0.65, z+0.1'
   'x+0.85, y+0.55, -z+0.1'
   '-x+1/4, y+1/2, -z+0.15'
   'x+0.95, -y+0.7, z+0.05'
   'x+0.9, -y+3/4, -z+0.05'
   '-x+0.3, y+0.45, z+0.15'
   'z, x+0.8, y+0.4'
   '-z, -x+0.2, -y+0.6'
   'z+0.1, -x+0.35, -y+0.65'
   '-z+0.1, x+0.85, y+0.55'
   '-z+0.15, -x+1/4, y+1/2'
   'z+0.05, x+0.95, -y+0.7'
   '-z+0.05, x+0.9, -y+3/4'
   'z+0.15, -x+0.3, y+0.45'
   'y+0.4, z, x+0.8'
   '-y+0.6, -z, -x+0.2'
   '-y+0.65, z+0.1, -x+0.35'
   'y+0.55, -z+0.1, x+0.85'
   'y+1/2, -z+0.15, -x+1/4'
   '-y+0.7, z+0.05, x+0.95'
   '-y+3/4, -z+0.05, x+0.9'
   'y+0.45, z+0.15, -x+0.3'
   'y+0.55, x+0.85, -z+0.1'
   '-y+0.65, -x+0.35, z+0.1'
   '-y+0.6, -x+0.2, -z'
   'y+0.4, x+0.8, z'
   'y+0.45, -x+0.3, z+0.15'
   '-y+3/4, x+0.9, -z+0.05'
   '-y+0.7, x+0.95, z+0.05'
   'y+1/2, -x+1/4, -z+0.15'
   'x+0.95, z+0.05, -y+0.7'
   '-x+1/4, -z+0.15, y+1/2'
   '-x+0.3, z+0.15, y+0.45'
   'x+0.9, -z+0.05, -y+3/4'
   '-x+0.2, -z, -y+0.6'
   'x+0.8, z, y+0.4'
   'x+0.85, -z+0.1, y+0.55'
   '-x+0.35, z+0.1, -y+0.65'
   'z+0.15, y+0.45, -x+0.3'
   '-z+0.05, -y+3/4, x+0.9'
   'z+0.05, -y+0.7, x+0.95'
   '-z+0.15, y+1/2, -x+1/4'
   '-z+0.1, y+0.55, x+0.85'
   'z+0.1, -y+0.65, -x+0.35'
   '-z, -y+0.6, -x+0.2'
   'z, y+0.4, x+0.8'
   'x+0.8, y+1/2, z+0.1'
   '-x+0.2, -y+0.7, -z+0.1'
   '-x+0.35, -y+3/4, z'
   'x+0.85, y+0.45, -z'
   '-x+1/4, y+0.4, -z+0.05'
   'x+0.95, -y+0.6, z+0.15'
   'x+0.9, -y+0.65, -z+0.15'
   '-x+0.3, y+0.55, z+0.05'
   'z, x+0.9, y+1/2'
   '-z, -x+0.3, -y+0.7'
   'z+0.1, -x+1/4, -y+3/4'
   '-z+0.1, x+0.95, y+0.45'
   '-z+0.15, -x+0.35, y+0.4'
   'z+0.05, x+0.85, -y+0.6'
   '-z+0.05, x+0.8, -y+0.65'
   'z+0.15, -x+0.2, y+0.55'
   'y+0.4, z+0.1, x+0.9'
   '-y+0.6, -z+0.1, -x+0.3'
   '-y+0.65, z, -x+1/4'
   'y+0.55, -z, x+0.95'
   'y+1/2, -z+0.05, -x+0.35'
   '-y+0.7, z+0.15, x+0.85'
   '-y+3/4, -z+0.15, x+0.8'
   'y+0.45, z+0.05, -x+0.2'
   'y+0.55, x+0.95, -z'
   '-y+0.65, -x+1/4, z'
   '-y+0.6, -x+0.3, -z+0.1'
   'y+0.4, x+0.9, z+0.1'
   'y+0.45, -x+0.2, z+0.05'
   '-y+3/4, x+0.8, -z+0.15'
   '-y+0.7, x+0.85, z+0.15'
   'y+1/2, -x+0.35, -z+0.05'
   'x+0.95, z+0.15, -y+0.6'
   '-x+1/4, -z+0.05, y+0.4'
   '-x+0.3, z+0.05, y+0.55'
   'x+0.9, -z+0.15, -y+0.65'
   '-x+0.2, -z+0.1, -y+0.7'
   'x+0.8, z+0.1, y+1/2'
   'x+0.85, -z, y+0.45'
   '-x+0.35, z, -y+3/4'
   'z+0.15, y+0.55, -x+0.2'
   '-z+0.05, -y+0.65, x+0.8'
   'z+0.05, -y+0.6, x+0.85'
   '-z+0.15, y+0.4, -x+0.35'
   '-z+0.1, y+0.45, x+0.95'
   'z+0.1, -y+3/4, -x+1/4'
   '-z, -y+0.7, -x+0.3'
   'z, y+1/2, x+0.9'
   'x+0.9, y+0.4, z+0.1'
   '-x+0.3, -y+0.6, -z+0.1'
   '-x+1/4, -y+0.65, z'
   'x+0.95, y+0.55, -z'
   '-x+0.35, y+1/2, -z+0.05'
   'x+0.85, -y+0.7, z+0.15'
   'x+0.8, -y+3/4, -z+0.15'
   '-x+0.2, y+0.45, z+0.05'
   'z+0.1, x+0.8, y+1/2'
   '-z+0.1, -x+0.2, -y+0.7'
   'z, -x+0.35, -y+3/4'
   '-z, x+0.85, y+0.45'
   '-z+0.05, -x+1/4, y+0.4'
   'z+0.15, x+0.95, -y+0.6'
   '-z+0.15, x+0.9, -y+0.65'
   'z+0.05, -x+0.3, y+0.55'
   'y+1/2, z, x+0.9'
   '-y+0.7, -z, -x+0.3'
   '-y+3/4, z+0.1, -x+1/4'
   'y+0.45, -z+0.1, x+0.95'
   'y+0.4, -z+0.15, -x+0.35'
   '-y+0.6, z+0.05, x+0.85'
   '-y+0.65, -z+0.05, x+0.8'
   'y+0.55, z+0.15, -x+0.2'
   'y+0.45, x+0.85, -z'
   '-y+3/4, -x+0.35, z'
   '-y+0.7, -x+0.2, -z+0.1'
   'y+1/2, x+0.8, z+0.1'
   'y+0.55, -x+0.3, z+0.05'
   '-y+0.65, x+0.9, -z+0.15'
   '-y+0.6, x+0.95, z+0.15'
   'y+0.4, -x+1/4, -z+0.05'
   'x+0.85, z+0.05, -y+0.6'
   '-x+0.35, -z+0.15, y+0.4'
   '-x+0.2, z+0.15, y+0.55'
   'x+0.8, -z+0.05, -y+0.65'
   '-x+0.3, -z, -y+0.7'
   'x+0.9, z, y+1/2'
   'x+0.95, -z+0.1, y+0.45'
   '-x+1/4, z+0.1, -y+3/4'
   'z+0.05, y+0.45, -x+0.2'
   '-z+0.15, -y+3/4, x+0.8'
   'z+0.15, -y+0.7, x+0.85'
   '-z+0.05, y+1/2, -x+0.35'
   '-z, y+0.55, x+0.95'
   'z, -y+0.65, -x+1/4'
   '-z+0.1, -y+0.6, -x+0.3'
   'z+0.1, y+0.4, x+0.9'
   'x+0.9, y+1/2, z'
   '-x+0.3, -y+0.7, -z'
   '-x+1/4, -y+3/4, z+0.1'
   'x+0.95, y+0.45, -z+0.1'
   '-x+0.35, y+0.4, -z+0.15'
   'x+0.85, -y+0.6, z+0.05'
   'x+0.8, -y+0.65, -z+0.05'
   '-x+0.2, y+0.55, z+0.15'
   'z+0.1, x+0.9, y+0.4'
   '-z+0.1, -x+0.3, -y+0.6'
   'z, -x+1/4, -y+0.65'
   '-z, x+0.95, y+0.55'
   '-z+0.05, -x+0.35, y+1/2'
   'z+0.15, x+0.85, -y+0.7'
   '-z+0.15, x+0.8, -y+3/4'
   'z+0.05, -x+0.2, y+0.45'
   'y+1/2, z+0.1, x+0.8'
   '-y+0.7, -z+0.1, -x+0.2'
   '-y+3/4, z, -x+0.35'
   'y+0.45, -z, x+0.85'
   'y+0.4, -z+0.05, -x+1/4'
   '-y+0.6, z+0.15, x+0.95'
   '-y+0.65, -z+0.15, x+0.9'
   'y+0.55, z+0.05, -x+0.3'
   'y+0.45, x+0.95, -z+0.1'
   '-y+3/4, -x+1/4, z+0.1'
   '-y+0.7, -x+0.3, -z'
   'y+1/2, x+0.9, z'
   'y+0.55, -x+0.2, z+0.15'
   '-y+0.65, x+0.8, -z+0.05'
   '-y+0.6, x+0.85, z+0.05'
   'y+0.4, -x+0.35, -z+0.15'
   'x+0.85, z+0.15, -y+0.7'
   '-x+0.35, -z+0.05, y+1/2'
   '-x+0.2, z+0.05, y+0.45'
   'x+0.8, -z+0.15, -y+3/4'
   '-x+0.3, -z+0.1, -y+0.6'
   'x+0.9, z+0.1, y+0.4'
   'x+0.95, -z, y+0.55'
   '-x+1/4, z, -y+0.65'
   'z+0.05, y+0.55, -x+0.3'
   '-z+0.15, -y+0.65, x+0.9'
   'z+0.15, -y+0.6, x+0.95'
   '-z+0.05, y+0.4, -x+1/4'
   '-z, y+0.45, x+0.85'
   'z, -y+3/4, -x+0.35'
   '-z+0.1, -y+0.7, -x+0.2'
   'z+0.1, y+1/2, x+0.8'
   'x+0.8, y+0.4, z+0.2'
   '-x+0.2, -y+0.6, -z+0.8'
   '-x+0.35, -y+0.65, z+0.3'
   'x+0.85, y+0.55, -z+0.9'
   '-x+1/4, y+1/2, -z+0.95'
   'x+0.95, -y+0.7, z+1/4'
   'x+0.9, -y+3/4, -z+0.85'
   '-x+0.3, y+0.45, z+0.35'
   'z+0.2, x+0.8, y+0.4'
   '-z+0.8, -x+0.2, -y+0.6'
   'z+0.3, -x+0.35, -y+0.65'
   '-z+0.9, x+0.85, y+0.55'
   '-z+0.95, -x+1/4, y+1/2'
   'z+1/4, x+0.95, -y+0.7'
   '-z+0.85, x+0.9, -y+3/4'
   'z+0.35, -x+0.3, y+0.45'
   'y+0.4, z+0.2, x+0.8'
   '-y+0.6, -z+0.8, -x+0.2'
   '-y+0.65, z+0.3, -x+0.35'
   'y+0.55, -z+0.9, x+0.85'
   'y+1/2, -z+0.95, -x+1/4'
   '-y+0.7, z+1/4, x+0.95'
   '-y+3/4, -z+0.85, x+0.9'
   'y+0.45, z+0.35, -x+0.3'
   'y+0.55, x+0.85, -z+0.9'
   '-y+0.65, -x+0.35, z+0.3'
   '-y+0.6, -x+0.2, -z+0.8'
   'y+0.4, x+0.8, z+0.2'
   'y+0.45, -x+0.3, z+0.35'
   '-y+3/4, x+0.9, -z+0.85'
   '-y+0.7, x+0.95, z+1/4'
   'y+1/2, -x+1/4, -z+0.95'
   'x+0.95, z+1/4, -y+0.7'
   '-x+1/4, -z+0.95, y+1/2'
   '-x+0.3, z+0.35, y+0.45'
   'x+0.9, -z+0.85, -y+3/4'
   '-x+0.2, -z+0.8, -y+0.6'
   'x+0.8, z+0.2, y+0.4'
   'x+0.85, -z+0.9, y+0.55'
   '-x+0.35, z+0.3, -y+0.65'
   'z+0.35, y+0.45, -x+0.3'
   '-z+0.85, -y+3/4, x+0.9'
   'z+1/4, -y+0.7, x+0.95'
   '-z+0.95, y+1/2, -x+1/4'
   '-z+0.9, y+0.55, x+0.85'
   'z+0.3, -y+0.65, -x+0.35'
   '-z+0.8, -y+0.6, -x+0.2'
   'z+0.2, y+0.4, x+0.8'
   'x+0.8, y+1/2, z+0.3'
   '-x+0.2, -y+0.7, -z+0.9'
   '-x+0.35, -y+3/4, z+0.2'
   'x+0.85, y+0.45, -z+0.8'
   '-x+1/4, y+0.4, -z+0.85'
   'x+0.95, -y+0.6, z+0.35'
   'x+0.9, -y+0.65, -z+0.95'
   '-x+0.3, y+0.55, z+1/4'
   'z+0.2, x+0.9, y+1/2'
   '-z+0.8, -x+0.3, -y+0.7'
   'z+0.3, -x+1/4, -y+3/4'
   '-z+0.9, x+0.95, y+0.45'
   '-z+0.95, -x+0.35, y+0.4'
   'z+1/4, x+0.85, -y+0.6'
   '-z+0.85, x+0.8, -y+0.65'
   'z+0.35, -x+0.2, y+0.55'
   'y+0.4, z+0.3, x+0.9'
   '-y+0.6, -z+0.9, -x+0.3'
   '-y+0.65, z+0.2, -x+1/4'
   'y+0.55, -z+0.8, x+0.95'
   'y+1/2, -z+0.85, -x+0.35'
   '-y+0.7, z+0.35, x+0.85'
   '-y+3/4, -z+0.95, x+0.8'
   'y+0.45, z+1/4, -x+0.2'
   'y+0.55, x+0.95, -z+0.8'
   '-y+0.65, -x+1/4, z+0.2'
   '-y+0.6, -x+0.3, -z+0.9'
   'y+0.4, x+0.9, z+0.3'
   'y+0.45, -x+0.2, z+1/4'
   '-y+3/4, x+0.8, -z+0.95'
   '-y+0.7, x+0.85, z+0.35'
   'y+1/2, -x+0.35, -z+0.85'
   'x+0.95, z+0.35, -y+0.6'
   '-x+1/4, -z+0.85, y+0.4'
   '-x+0.3, z+1/4, y+0.55'
   'x+0.9, -z+0.95, -y+0.65'
   '-x+0.2, -z+0.9, -y+0.7'
   'x+0.8, z+0.3, y+1/2'
   'x+0.85, -z+0.8, y+0.45'
   '-x+0.35, z+0.2, -y+3/4'
   'z+0.35, y+0.55, -x+0.2'
   '-z+0.85, -y+0.65, x+0.8'
   'z+1/4, -y+0.6, x+0.85'
   '-z+0.95, y+0.4, -x+0.35'
   '-z+0.9, y+0.45, x+0.95'
   'z+0.3, -y+3/4, -x+1/4'
   '-z+0.8, -y+0.7, -x+0.3'
   'z+0.2, y+1/2, x+0.9'
   'x+0.9, y+0.4, z+0.3'
   '-x+0.3, -y+0.6, -z+0.9'
   '-x+1/4, -y+0.65, z+0.2'
   'x+0.95, y+0.55, -z+0.8'
   '-x+0.35, y+1/2, -z+0.85'
   'x+0.85, -y+0.7, z+0.35'
   'x+0.8, -y+3/4, -z+0.95'
   '-x+0.2, y+0.45, z+1/4'
   'z+0.3, x+0.8, y+1/2'
   '-z+0.9, -x+0.2, -y+0.7'
   'z+0.2, -x+0.35, -y+3/4'
   '-z+0.8, x+0.85, y+0.45'
   '-z+0.85, -x+1/4, y+0.4'
   'z+0.35, x+0.95, -y+0.6'
   '-z+0.95, x+0.9, -y+0.65'
   'z+1/4, -x+0.3, y+0.55'
   'y+1/2, z+0.2, x+0.9'
   '-y+0.7, -z+0.8, -x+0.3'
   '-y+3/4, z+0.3, -x+1/4'
   'y+0.45, -z+0.9, x+0.95'
   'y+0.4, -z+0.95, -x+0.35'
   '-y+0.6, z+1/4, x+0.85'
   '-y+0.65, -z+0.85, x+0.8'
   'y+0.55, z+0.35, -x+0.2'
   'y+0.45, x+0.85, -z+0.8'
   '-y+3/4, -x+0.35, z+0.2'
   '-y+0.7, -x+0.2, -z+0.9'
   'y+1/2, x+0.8, z+0.3'
   'y+0.55, -x+0.3, z+1/4'
   '-y+0.65, x+0.9, -z+0.95'
   '-y+0.6, x+0.95, z+0.35'
   'y+0.4, -x+1/4, -z+0.85'
   'x+0.85, z+1/4, -y+0.6'
   '-x+0.35, -z+0.95, y+0.4'
   '-x+0.2, z+0.35, y+0.55'
   'x+0.8, -z+0.85, -y+0.65'
   '-x+0.3, -z+0.8, -y+0.7'
   'x+0.9, z+0.2, y+1/2'
   'x+0.95, -z+0.9, y+0.45'
   '-x+1/4, z+0.3, -y+3/4'
   'z+1/4, y+0.45, -x+0.2'
   '-z+0.95, -y+3/4, x+0.8'
   'z+0.35, -y+0.7, x+0.85'
   '-z+0.85, y+1/2, -x+0.35'
   '-z+0.8, y+0.55, x+0.95'
   'z+0.2, -y+0.65, -x+1/4'
   '-z+0.9, -y+0.6, -x+0.3'
   'z+0.3, y+0.4, x+0.9'
   'x+0.9, y+1/2, z+0.2'
   '-x+0.3, -y+0.7, -z+0.8'
   '-x+1/4, -y+3/4, z+0.3'
   'x+0.95, y+0.45, -z+0.9'
   '-x+0.35, y+0.4, -z+0.95'
   'x+0.85, -y+0.6, z+1/4'
   'x+0.8, -y+0.65, -z+0.85'
   '-x+0.2, y+0.55, z+0.35'
   'z+0.3, x+0.9, y+0.4'
   '-z+0.9, -x+0.3, -y+0.6'
   'z+0.2, -x+1/4, -y+0.65'
   '-z+0.8, x+0.95, y+0.55'
   '-z+0.85, -x+0.35, y+1/2'
   'z+0.35, x+0.85, -y+0.7'
   '-z+0.95, x+0.8, -y+3/4'
   'z+1/4, -x+0.2, y+0.45'
   'y+1/2, z+0.3, x+0.8'
   '-y+0.7, -z+0.9, -x+0.2'
   '-y+3/4, z+0.2, -x+0.35'
   'y+0.45, -z+0.8, x+0.85'
   'y+0.4, -z+0.85, -x+1/4'
   '-y+0.6, z+0.35, x+0.95'
   '-y+0.65, -z+0.95, x+0.9'
   'y+0.55, z+1/4, -x+0.3'
   'y+0.45, x+0.95, -z+0.9'
   '-y+3/4, -x+1/4, z+0.3'
   '-y+0.7, -x+0.3, -z+0.8'
   'y+1/2, x+0.9, z+0.2'
   'y+0.55, -x+0.2, z+0.35'
   '-y+0.65, x+0.8, -z+0.85'
   '-y+0.6, x+0.85, z+1/4'
   'y+0.4, -x+0.35, -z+0.95'
   'x+0.85, z+0.35, -y+0.7'
   '-x+0.35, -z+0.85, y+1/2'
   '-x+0.2, z+1/4, y+0.45'
   'x+0.8, -z+0.95, -y+3/4'
   '-x+0.3, -z+0.9, -y+0.6'
   'x+0.9, z+0.3, y+0.4'
   'x+0.95, -z+0.8, y+0.55'
   '-x+1/4, z+0.2, -y+0.65'
   'z+1/4, y+0.55, -x+0.3'
   '-z+0.95, -y+0.65, x+0.9'
   'z+0.35, -y+0.6, x+0.95'
   '-z+0.85, y+0.4, -x+1/4'
   '-z+0.8, y+0.45, x+0.85'
   'z+0.2, -y+3/4, -x+0.35'
   '-z+0.9, -y+0.7, -x+0.2'
   'z+0.3, y+1/2, x+0.8'
   'x+0.8, y+0.4, z+0.4'
   '-x+0.2, -y+0.6, -z+0.6'
   '-x+0.35, -y+0.65, z+1/2'
   'x+0.85, y+0.55, -z+0.7'
   '-x+1/4, y+1/2, -z+3/4'
   'x+0.95, -y+0.7, z+0.45'
   'x+0.9, -y+3/4, -z+0.65'
   '-x+0.3, y+0.45, z+0.55'
   'z+0.4, x+0.8, y+0.4'
   '-z+0.6, -x+0.2, -y+0.6'
   'z+1/2, -x+0.35, -y+0.65'
   '-z+0.7, x+0.85, y+0.55'
   '-z+3/4, -x+1/4, y+1/2'
   'z+0.45, x+0.95, -y+0.7'
   '-z+0.65, x+0.9, -y+3/4'
   'z+0.55, -x+0.3, y+0.45'
   'y+0.4, z+0.4, x+0.8'
   '-y+0.6, -z+0.6, -x+0.2'
   '-y+0.65, z+1/2, -x+0.35'
   'y+0.55, -z+0.7, x+0.85'
   'y+1/2, -z+3/4, -x+1/4'
   '-y+0.7, z+0.45, x+0.95'
   '-y+3/4, -z+0.65, x+0.9'
   'y+0.45, z+0.55, -x+0.3'
   'y+0.55, x+0.85, -z+0.7'
   '-y+0.65, -x+0.35, z+1/2'
   '-y+0.6, -x+0.2, -z+0.6'
   'y+0.4, x+0.8, z+0.4'
   'y+0.45, -x+0.3, z+0.55'
   '-y+3/4, x+0.9, -z+0.65'
   '-y+0.7, x+0.95, z+0.45'
   'y+1/2, -x+1/4, -z+3/4'
   'x+0.95, z+0.45, -y+0.7'
   '-x+1/4, -z+3/4, y+1/2'
   '-x+0.3, z+0.55, y+0.45'
   'x+0.9, -z+0.65, -y+3/4'
   '-x+0.2, -z+0.6, -y+0.6'
   'x+0.8, z+0.4, y+0.4'
   'x+0.85, -z+0.7, y+0.55'
   '-x+0.35, z+1/2, -y+0.65'
   'z+0.55, y+0.45, -x+0.3'
   '-z+0.65, -y+3/4, x+0.9'
   'z+0.45, -y+0.7, x+0.95'
   '-z+3/4, y+1/2, -x+1/4'
   '-z+0.7, y+0.55, x+0.85'
   'z+1/2, -y+0.65, -x+0.35'
   '-z+0.6, -y+0.6, -x+0.2'
   'z+0.4, y+0.4, x+0.8'
   'x+0.8, y+1/2, z+1/2'
   '-x+0.2, -y+0.7, -z+0.7'
   '-x+0.35, -y+3/4, z+0.4'
   'x+0.85, y+0.45, -z+0.6'
   '-x+1/4, y+0.4, -z+0.65'
   'x+0.95, -y+0.6, z+0.55'
   'x+0.9, -y+0.65, -z+3/4'
   '-x+0.3, y+0.55, z+0.45'
   'z+0.4, x+0.9, y+1/2'
   '-z+0.6, -x+0.3, -y+0.7'
   'z+1/2, -x+1/4, -y+3/4'
   '-z+0.7, x+0.95, y+0.45'
   '-z+3/4, -x+0.35, y+0.4'
   'z+0.45, x+0.85, -y+0.6'
   '-z+0.65, x+0.8, -y+0.65'
   'z+0.55, -x+0.2, y+0.55'
   'y+0.4, z+1/2, x+0.9'
   '-y+0.6, -z+0.7, -x+0.3'
   '-y+0.65, z+0.4, -x+1/4'
   'y+0.55, -z+0.6, x+0.95'
   'y+1/2, -z+0.65, -x+0.35'
   '-y+0.7, z+0.55, x+0.85'
   '-y+3/4, -z+3/4, x+0.8'
   'y+0.45, z+0.45, -x+0.2'
   'y+0.55, x+0.95, -z+0.6'
   '-y+0.65, -x+1/4, z+0.4'
   '-y+0.6, -x+0.3, -z+0.7'
   'y+0.4, x+0.9, z+1/2'
   'y+0.45, -x+0.2, z+0.45'
   '-y+3/4, x+0.8, -z+3/4'
   '-y+0.7, x+0.85, z+0.55'
   'y+1/2, -x+0.35, -z+0.65'
   'x+0.95, z+0.55, -y+0.6'
   '-x+1/4, -z+0.65, y+0.4'
   '-x+0.3, z+0.45, y+0.55'
   'x+0.9, -z+3/4, -y+0.65'
   '-x+0.2, -z+0.7, -y+0.7'
   'x+0.8, z+1/2, y+1/2'
   'x+0.85, -z+0.6, y+0.45'
   '-x+0.35, z+0.4, -y+3/4'
   'z+0.55, y+0.55, -x+0.2'
   '-z+0.65, -y+0.65, x+0.8'
   'z+0.45, -y+0.6, x+0.85'
   '-z+3/4, y+0.4, -x+0.35'
   '-z+0.7, y+0.45, x+0.95'
   'z+1/2, -y+3/4, -x+1/4'
   '-z+0.6, -y+0.7, -x+0.3'
   'z+0.4, y+1/2, x+0.9'
   'x+0.9, y+0.4, z+1/2'
   '-x+0.3, -y+0.6, -z+0.7'
   '-x+1/4, -y+0.65, z+0.4'
   'x+0.95, y+0.55, -z+0.6'
   '-x+0.35, y+1/2, -z+0.65'
   'x+0.85, -y+0.7, z+0.55'
   'x+0.8, -y+3/4, -z+3/4'
   '-x+0.2, y+0.45, z+0.45'
   'z+1/2, x+0.8, y+1/2'
   '-z+0.7, -x+0.2, -y+0.7'
   'z+0.4, -x+0.35, -y+3/4'
   '-z+0.6, x+0.85, y+0.45'
   '-z+0.65, -x+1/4, y+0.4'
   'z+0.55, x+0.95, -y+0.6'
   '-z+3/4, x+0.9, -y+0.65'
   'z+0.45, -x+0.3, y+0.55'
   'y+1/2, z+0.4, x+0.9'
   '-y+0.7, -z+0.6, -x+0.3'
   '-y+3/4, z+1/2, -x+1/4'
   'y+0.45, -z+0.7, x+0.95'
   'y+0.4, -z+3/4, -x+0.35'
   '-y+0.6, z+0.45, x+0.85'
   '-y+0.65, -z+0.65, x+0.8'
   'y+0.55, z+0.55, -x+0.2'
   'y+0.45, x+0.85, -z+0.6'
   '-y+3/4, -x+0.35, z+0.4'
   '-y+0.7, -x+0.2, -z+0.7'
   'y+1/2, x+0.8, z+1/2'
   'y+0.55, -x+0.3, z+0.45'
   '-y+0.65, x+0.9, -z+3/4'
   '-y+0.6, x+0.95, z+0.55'
   'y+0.4, -x+1/4, -z+0.65'
   'x+0.85, z+0.45, -y+0.6'
   '-x+0.35, -z+3/4, y+0.4'
   '-x+0.2, z+0.55, y+0.55'
   'x+0.8, -z+0.65, -y+0.65'
   '-x+0.3, -z+0.6, -y+0.7'
   'x+0.9, z+0.4, y+1/2'
   'x+0.95, -z+0.7, y+0.45'
   '-x+1/4, z+1/2, -y+3/4'
   'z+0.45, y+0.45, -x+0.2'
   '-z+3/4, -y+3/4, x+0.8'
   'z+0.55, -y+0.7, x+0.85'
   '-z+0.65, y+1/2, -x+0.35'
   '-z+0.6, y+0.55, x+0.95'
   'z+0.4, -y+0.65, -x+1/4'
   '-z+0.7, -y+0.6, -x+0.3'
   'z+1/2, y+0.4, x+0.9'
   'x+0.9, y+1/2, z+0.4'
   '-x+0.3, -y+0.7, -z+0.6'
   '-x+1/4, -y+3/4, z+1/2'
   'x+0.95, y+0.45, -z+0.7'
   '-x+0.35, y+0.4, -z+3/4'
   'x+0.85, -y+0.6, z+0.45'
   'x+0.8, -y+0.65, -z+0.65'
   '-x+0.2, y+0.55, z+0.55'
   'z+1/2, x+0.9, y+0.4'
   '-z+0.7, -x+0.3, -y+0.6'
   'z+0.4, -x+1/4, -y+0.65'
   '-z+0.6, x+0.95, y+0.55'
   '-z+0.65, -x+0.35, y+1/2'
   'z+0.55, x+0.85, -y+0.7'
   '-z+3/4, x+0.8, -y+3/4'
   'z+0.45, -x+0.2, y+0.45'
   'y+1/2, z+1/2, x+0.8'
   '-y+0.7, -z+0.7, -x+0.2'
   '-y+3/4, z+0.4, -x+0.35'
   'y+0.45, -z+0.6, x+0.85'
   'y+0.4, -z+0.65, -x+1/4'
   '-y+0.6, z+0.55, x+0.95'
   '-y+0.65, -z+3/4, x+0.9'
   'y+0.55, z+0.45, -x+0.3'
   'y+0.45, x+0.95, -z+0.7'
   '-y+3/4, -x+1/4, z+1/2'
   '-y+0.7, -x+0.3, -z+0.6'
   'y+1/2, x+0.9, z+0.4'
   'y+0.55, -x+0.2, z+0.55'
   '-y+0.65, x+0.8, -z+0.65'
   '-y+0.6, x+0.85, z+0.45'
   'y+0.4, -x+0.35, -z+3/4'
   'x+0.85, z+0.55, -y+0.7'
   '-x+0.35, -z+0.65, y+1/2'
   '-x+0.2, z+0.45, y+0.45'
   'x+0.8, -z+3/4, -y+3/4'
   '-x+0.3, -z+0.7, -y+0.6'
   'x+0.9, z+1/2, y+0.4'
   'x+0.95, -z+0.6, y+0.55'
   '-x+1/4, z+0.4, -y+0.65'
   'z+0.45, y+0.55, -x+0.3'
   '-z+3/4, -y+0.65, x+0.9'
   'z+0.55, -y+0.6, x+0.95'
   '-z+0.65, y+0.4, -x+1/4'
   '-z+0.6, y+0.45, x+0.85'
   'z+0.4, -y+3/4, -x+0.35'
   '-z+0.7, -y+0.7, -x+0.2'
   'z+1/2, y+1/2, x+0.8'
   'x+0.8, y+0.4, z+0.6'
   '-x+0.2, -y+0.6, -z+0.4'
   '-x+0.35, -y+0.65, z+0.7'
   'x+0.85, y+0.55, -z+1/2'
   '-x+1/4, y+1/2, -z+0.55'
   'x+0.95, -y+0.7, z+0.65'
   'x+0.9, -y+3/4, -z+0.45'
   '-x+0.3, y+0.45, z+3/4'
   'z+0.6, x+0.8, y+0.4'
   '-z+0.4, -x+0.2, -y+0.6'
   'z+0.7, -x+0.35, -y+0.65'
   '-z+1/2, x+0.85, y+0.55'
   '-z+0.55, -x+1/4, y+1/2'
   'z+0.65, x+0.95, -y+0.7'
   '-z+0.45, x+0.9, -y+3/4'
   'z+3/4, -x+0.3, y+0.45'
   'y+0.4, z+0.6, x+0.8'
   '-y+0.6, -z+0.4, -x+0.2'
   '-y+0.65, z+0.7, -x+0.35'
   'y+0.55, -z+1/2, x+0.85'
   'y+1/2, -z+0.55, -x+1/4'
   '-y+0.7, z+0.65, x+0.95'
   '-y+3/4, -z+0.45, x+0.9'
   'y+0.45, z+3/4, -x+0.3'
   'y+0.55, x+0.85, -z+1/2'
   '-y+0.65, -x+0.35, z+0.7'
   '-y+0.6, -x+0.2, -z+0.4'
   'y+0.4, x+0.8, z+0.6'
   'y+0.45, -x+0.3, z+3/4'
   '-y+3/4, x+0.9, -z+0.45'
   '-y+0.7, x+0.95, z+0.65'
   'y+1/2, -x+1/4, -z+0.55'
   'x+0.95, z+0.65, -y+0.7'
   '-x+1/4, -z+0.55, y+1/2'
   '-x+0.3, z+3/4, y+0.45'
   'x+0.9, -z+0.45, -y+3/4'
   '-x+0.2, -z+0.4, -y+0.6'
   'x+0.8, z+0.6, y+0.4'
   'x+0.85, -z+1/2, y+0.55'
   '-x+0.35, z+0.7, -y+0.65'
   'z+3/4, y+0.45, -x+0.3'
   '-z+0.45, -y+3/4, x+0.9'
   'z+0.65, -y+0.7, x+0.95'
   '-z+0.55, y+1/2, -x+1/4'
   '-z+1/2, y+0.55, x+0.85'
   'z+0.7, -y+0.65, -x+0.35'
   '-z+0.4, -y+0.6, -x+0.2'
   'z+0.6, y+0.4, x+0.8'
   'x+0.8, y+1/2, z+0.7'
   '-x+0.2, -y+0.7, -z+1/2'
   '-x+0.35, -y+3/4, z+0.6'
   'x+0.85, y+0.45, -z+0.4'
   '-x+1/4, y+0.4, -z+0.45'
   'x+0.95, -y+0.6, z+3/4'
   'x+0.9, -y+0.65, -z+0.55'
   '-x+0.3, y+0.55, z+0.65'
   'z+0.6, x+0.9, y+1/2'
   '-z+0.4, -x+0.3, -y+0.7'
   'z+0.7, -x+1/4, -y+3/4'
   '-z+1/2, x+0.95, y+0.45'
   '-z+0.55, -x+0.35, y+0.4'
   'z+0.65, x+0.85, -y+0.6'
   '-z+0.45, x+0.8, -y+0.65'
   'z+3/4, -x+0.2, y+0.55'
   'y+0.4, z+0.7, x+0.9'
   '-y+0.6, -z+1/2, -x+0.3'
   '-y+0.65, z+0.6, -x+1/4'
   'y+0.55, -z+0.4, x+0.95'
   'y+1/2, -z+0.45, -x+0.35'
   '-y+0.7, z+3/4, x+0.85'
   '-y+3/4, -z+0.55, x+0.8'
   'y+0.45, z+0.65, -x+0.2'
   'y+0.55, x+0.95, -z+0.4'
   '-y+0.65, -x+1/4, z+0.6'
   '-y+0.6, -x+0.3, -z+1/2'
   'y+0.4, x+0.9, z+0.7'
   'y+0.45, -x+0.2, z+0.65'
   '-y+3/4, x+0.8, -z+0.55'
   '-y+0.7, x+0.85, z+3/4'
   'y+1/2, -x+0.35, -z+0.45'
   'x+0.95, z+3/4, -y+0.6'
   '-x+1/4, -z+0.45, y+0.4'
   '-x+0.3, z+0.65, y+0.55'
   'x+0.9, -z+0.55, -y+0.65'
   '-x+0.2, -z+1/2, -y+0.7'
   'x+0.8, z+0.7, y+1/2'
   'x+0.85, -z+0.4, y+0.45'
   '-x+0.35, z+0.6, -y+3/4'
   'z+3/4, y+0.55, -x+0.2'
   '-z+0.45, -y+0.65, x+0.8'
   'z+0.65, -y+0.6, x+0.85'
   '-z+0.55, y+0.4, -x+0.35'
   '-z+1/2, y+0.45, x+0.95'
   'z+0.7, -y+3/4, -x+1/4'
   '-z+0.4, -y+0.7, -x+0.3'
   'z+0.6, y+1/2, x+0.9'
   'x+0.9, y+0.4, z+0.7'
   '-x+0.3, -y+0.6, -z+1/2'
   '-x+1/4, -y+0.65, z+0.6'
   'x+0.95, y+0.55, -z+0.4'
   '-x+0.35, y+1/2, -z+0.45'
   'x+0.85, -y+0.7, z+3/4'
   'x+0.8, -y+3/4, -z+0.55'
   '-x+0.2, y+0.45, z+0.65'
   'z+0.7, x+0.8, y+1/2'
   '-z+1/2, -x+0.2, -y+0.7'
   'z+0.6, -x+0.35, -y+3/4'
   '-z+0.4, x+0.85, y+0.45'
   '-z+0.45, -x+1/4, y+0.4'
   'z+3/4, x+0.95, -y+0.6'
   '-z+0.55, x+0.9, -y+0.65'
   'z+0.65, -x+0.3, y+0.55'
   'y+1/2, z+0.6, x+0.9'
   '-y+0.7, -z+0.4, -x+0.3'
   '-y+3/4, z+0.7, -x+1/4'
   'y+0.45, -z+1/2, x+0.95'
   'y+0.4, -z+0.55, -x+0.35'
   '-y+0.6, z+0.65, x+0.85'
   '-y+0.65, -z+0.45, x+0.8'
   'y+0.55, z+3/4, -x+0.2'
   'y+0.45, x+0.85, -z+0.4'
   '-y+3/4, -x+0.35, z+0.6'
   '-y+0.7, -x+0.2, -z+1/2'
   'y+1/2, x+0.8, z+0.7'
   'y+0.55, -x+0.3, z+0.65'
   '-y+0.65, x+0.9, -z+0.55'
   '-y+0.6, x+0.95, z+3/4'
   'y+0.4, -x+1/4, -z+0.45'
   'x+0.85, z+0.65, -y+0.6'
   '-x+0.35, -z+0.55, y+0.4'
   '-x+0.2, z+3/4, y+0.55'
   'x+0.8, -z+0.45, -y+0.65'
   '-x+0.3, -z+0.4, -y+0.7'
   'x+0.9, z+0.6, y+1/2'
   'x+0.95, -z+1/2, y+0.45'
   '-x+1/4, z+0.7, -y+3/4'
   'z+0.65, y+0.45, -x+0.2'
   '-z+0.55, -y+3/4, x+0.8'
   'z+3/4, -y+0.7, x+0.85'
   '-z+0.45, y+1/2, -x+0.35'
   '-z+0.4, y+0.55, x+0.95'
   'z+0.6, -y+0.65, -x+1/4'
   '-z+1/2, -y+0.6, -x+0.3'
   'z+0.7, y+0.4, x+0.9'
   'x+0.9, y+1/2, z+0.6'
   '-x+0.3, -y+0.7, -z+0.4'
   '-x+1/4, -y+3/4, z+0.7'
   'x+0.95, y+0.45, -z+1/2'
   '-x+0.35, y+0.4, -z+0.55'
   'x+0.85, -y+0.6, z+0.65'
   'x+0.8, -y+0.65, -z+0.45'
   '-x+0.2, y+0.55, z+3/4'
   'z+0.7, x+0.9, y+0.4'
   '-z+1/2, -x+0.3, -y+0.6'
   'z+0.6, -x+1/4, -y+0.65'
   '-z+0.4, x+0.95, y+0.55'
   '-z+0.45, -x+0.35, y+1/2'
   'z+3/4, x+0.85, -y+0.7'
   '-z+0.55, x+0.8, -y+3/4'
   'z+0.65, -x+0.2, y+0.45'
   'y+1/2, z+0.7, x+0.8'
   '-y+0.7, -z+1/2, -x+0.2'
   '-y+3/4, z+0.6, -x+0.35'
   'y+0.45, -z+0.4, x+0.85'
   'y+0.4, -z+0.45, -x+1/4'
   '-y+0.6, z+3/4, x+0.95'
   '-y+0.65, -z+0.55, x+0.9'
   'y+0.55, z+0.65, -x+0.3'
   'y+0.45, x+0.95, -z+1/2'
   '-y+3/4, -x+1/4, z+0.7'
   '-y+0.7, -x+0.3, -z+0.4'
   'y+1/2, x+0.9, z+0.6'
   'y+0.55, -x+0.2, z+3/4'
   '-y+0.65, x+0.8, -z+0.45'
   '-y+0.6, x+0.85, z+0.65'
   'y+0.4, -x+0.35, -z+0.55'
   'x+0.85, z+3/4, -y+0.7'
   '-x+0.35, -z+0.45, y+1/2'
   '-x+0.2, z+0.65, y+0.45'
   'x+0.8, -z+0.55, -y+3/4'
   '-x+0.3, -z+1/2, -y+0.6'
   'x+0.9, z+0.7, y+0.4'
   'x+0.95, -z+0.4, y+0.55'
   '-x+1/4, z+0.6, -y+0.65'
   'z+0.65, y+0.55, -x+0.3'
   '-z+0.55, -y+0.65, x+0.9'
   'z+3/4, -y+0.6, x+0.95'
   '-z+0.45, y+0.4, -x+1/4'
   '-z+0.4, y+0.45, x+0.85'
   'z+0.6, -y+3/4, -x+0.35'
   '-z+1/2, -y+0.7, -x+0.2'
   'z+0.7, y+1/2, x+0.8'
   'x+0.8, y+0.4, z+0.8'
   '-x+0.2, -y+0.6, -z+0.2'
   '-x+0.35, -y+0.65, z+0.9'
   'x+0.85, y+0.55, -z+0.3'
   '-x+1/4, y+1/2, -z+0.35'
   'x+0.95, -y+0.7, z+0.85'
   'x+0.9, -y+3/4, -z+1/4'
   '-x+0.3, y+0.45, z+0.95'
   'z+0.8, x+0.8, y+0.4'
   '-z+0.2, -x+0.2, -y+0.6'
   'z+0.9, -x+0.35, -y+0.65'
   '-z+0.3, x+0.85, y+0.55'
   '-z+0.35, -x+1/4, y+1/2'
   'z+0.85, x+0.95, -y+0.7'
   '-z+1/4, x+0.9, -y+3/4'
   'z+0.95, -x+0.3, y+0.45'
   'y+0.4, z+0.8, x+0.8'
   '-y+0.6, -z+0.2, -x+0.2'
   '-y+0.65, z+0.9, -x+0.35'
   'y+0.55, -z+0.3, x+0.85'
   'y+1/2, -z+0.35, -x+1/4'
   '-y+0.7, z+0.85, x+0.95'
   '-y+3/4, -z+1/4, x+0.9'
   'y+0.45, z+0.95, -x+0.3'
   'y+0.55, x+0.85, -z+0.3'
   '-y+0.65, -x+0.35, z+0.9'
   '-y+0.6, -x+0.2, -z+0.2'
   'y+0.4, x+0.8, z+0.8'
   'y+0.45, -x+0.3, z+0.95'
   '-y+3/4, x+0.9, -z+1/4'
   '-y+0.7, x+0.95, z+0.85'
   'y+1/2, -x+1/4, -z+0.35'
   'x+0.95, z+0.85, -y+0.7'
   '-x+1/4, -z+0.35, y+1/2'
   '-x+0.3, z+0.95, y+0.45'
   'x+0.9, -z+1/4, -y+3/4'
   '-x+0.2, -z+0.2, -y+0.6'
   'x+0.8, z+0.8, y+0.4'
   'x+0.85, -z+0.3, y+0.55'
   '-x+0.35, z+0.9, -y+0.65'
   'z+0.95, y+0.45, -x+0.3'
   '-z+1/4, -y+3/4, x+0.9'
   'z+0.85, -y+0.7, x+0.95'
   '-z+0.35, y+1/2, -x+1/4'
   '-z+0.3, y+0.55, x+0.85'
   'z+0.9, -y+0.65, -x+0.35'
   '-z+0.2, -y+0.6, -x+0.2'
   'z+0.8, y+0.4, x+0.8'
   'x+0.8, y+1/2, z+0.9'
   '-x+0.2, -y+0.7, -z+0.3'
   '-x+0.35, -y+3/4, z+0.8'
   'x+0.85, y+0.45, -z+0.2'
   '-x+1/4, y+0.4, -z+1/4'
   'x+0.95, -y+0.6, z+0.95'
   'x+0.9, -y+0.65, -z+0.35'
   '-x+0.3, y+0.55, z+0.85'
   'z+0.8, x+0.9, y+1/2'
   '-z+0.2, -x+0.3, -y+0.7'
   'z+0.9, -x+1/4, -y+3/4'
   '-z+0.3, x+0.95, y+0.45'
   '-z+0.35, -x+0.35, y+0.4'
   'z+0.85, x+0.85, -y+0.6'
   '-z+1/4, x+0.8, -y+0.65'
   'z+0.95, -x+0.2, y+0.55'
   'y+0.4, z+0.9, x+0.9'
   '-y+0.6, -z+0.3, -x+0.3'
   '-y+0.65, z+0.8, -x+1/4'
   'y+0.55, -z+0.2, x+0.95'
   'y+1/2, -z+1/4, -x+0.35'
   '-y+0.7, z+0.95, x+0.85'
   '-y+3/4, -z+0.35, x+0.8'
   'y+0.45, z+0.85, -x+0.2'
   'y+0.55, x+0.95, -z+0.2'
   '-y+0.65, -x+1/4, z+0.8'
   '-y+0.6, -x+0.3, -z+0.3'
   'y+0.4, x+0.9, z+0.9'
   'y+0.45, -x+0.2, z+0.85'
   '-y+3/4, x+0.8, -z+0.35'
   '-y+0.7, x+0.85, z+0.95'
   'y+1/2, -x+0.35, -z+1/4'
   'x+0.95, z+0.95, -y+0.6'
   '-x+1/4, -z+1/4, y+0.4'
   '-x+0.3, z+0.85, y+0.55'
   'x+0.9, -z+0.35, -y+0.65'
   '-x+0.2, -z+0.3, -y+0.7'
   'x+0.8, z+0.9, y+1/2'
   'x+0.85, -z+0.2, y+0.45'
   '-x+0.35, z+0.8, -y+3/4'
   'z+0.95, y+0.55, -x+0.2'
   '-z+1/4, -y+0.65, x+0.8'
   'z+0.85, -y+0.6, x+0.85'
   '-z+0.35, y+0.4, -x+0.35'
   '-z+0.3, y+0.45, x+0.95'
   'z+0.9, -y+3/4, -x+1/4'
   '-z+0.2, -y+0.7, -x+0.3'
   'z+0.8, y+1/2, x+0.9'
   'x+0.9, y+0.4, z+0.9'
   '-x+0.3, -y+0.6, -z+0.3'
   '-x+1/4, -y+0.65, z+0.8'
   'x+0.95, y+0.55, -z+0.2'
   '-x+0.35, y+1/2, -z+1/4'
   'x+0.85, -y+0.7, z+0.95'
   'x+0.8, -y+3/4, -z+0.35'
   '-x+0.2, y+0.45, z+0.85'
   'z+0.9, x+0.8, y+1/2'
   '-z+0.3, -x+0.2, -y+0.7'
   'z+0.8, -x+0.35, -y+3/4'
   '-z+0.2, x+0.85, y+0.45'
   '-z+1/4, -x+1/4, y+0.4'
   'z+0.95, x+0.95, -y+0.6'
   '-z+0.35, x+0.9, -y+0.65'
   'z+0.85, -x+0.3, y+0.55'
   'y+1/2, z+0.8, x+0.9'
   '-y+0.7, -z+0.2, -x+0.3'
   '-y+3/4, z+0.9, -x+1/4'
   'y+0.45, -z+0.3, x+0.95'
   'y+0.4, -z+0.35, -x+0.35'
   '-y+0.6, z+0.85, x+0.85'
   '-y+0.65, -z+1/4, x+0.8'
   'y+0.55, z+0.95, -x+0.2'
   'y+0.45, x+0.85, -z+0.2'
   '-y+3/4, -x+0.35, z+0.8'
   '-y+0.7, -x+0.2, -z+0.3'
   'y+1/2, x+0.8, z+0.9'
   'y+0.55, -x+0.3, z+0.85'
   '-y+0.65, x+0.9, -z+0.35'
   '-y+0.6, x+0.95, z+0.95'
   'y+0.4, -x+1/4, -z+1/4'
   'x+0.85, z+0.85, -y+0.6'
   '-x+0.35, -z+0.35, y+0.4'
   '-x+0.2, z+0.95, y+0.55'
   'x+0.8, -z+1/4, -y+0.65'
   '-x+0.3, -z+0.2, -y+0.7'
   'x+0.9, z+0.8, y+1/2'
   'x+0.95, -z+0.3, y+0.45'
   '-x+1/4, z+0.9, -y+3/4'
   'z+0.85, y+0.45, -x+0.2'
   '-z+0.35, -y+3/4, x+0.8'
   'z+0.95, -y+0.7, x+0.85'
   '-z+1/4, y+1/2, -x+0.35'
   '-z+0.2, y+0.55, x+0.95'
   'z+0.8, -y+0.65, -x+1/4'
   '-z+0.3, -y+0.6, -x+0.3'
   'z+0.9, y+0.4, x+0.9'
   'x+0.9, y+1/2, z+0.8'
   '-x+0.3, -y+0.7, -z+0.2'
   '-x+1/4, -y+3/4, z+0.9'
   'x+0.95, y+0.45, -z+0.3'
   '-x+0.35, y+0.4, -z+0.35'
   'x+0.85, -y+0.6, z+0.85'
   'x+0.8, -y+0.65, -z+1/4'
   '-x+0.2, y+0.55, z+0.95'
   'z+0.9, x+0.9, y+0.4'
   '-z+0.3, -x+0.3, -y+0.6'
   'z+0.8, -x+1/4, -y+0.65'
   '-z+0.2, x+0.95, y+0.55'
   '-z+1/4, -x+0.35, y+1/2'
   'z+0.95, x+0.85, -y+0.7'
   '-z+0.35, x+0.8, -y+3/4'
   'z+0.85, -x+0.2, y+0.45'
   'y+1/2, z+0.9, x+0.8'
   '-y+0.7, -z+0.3, -x+0.2'
   '-y+3/4, z+0.8, -x+0.35'
   'y+0.45, -z+0.2, x+0.85'
   'y+0.4, -z+1/4, -x+1/4'
   '-y+0.6, z+0.95, x+0.95'
   '-y+0.65, -z+0.35, x+0.9'
   'y+0.55, z+0.85, -x+0.3'
   'y+0.45, x+0.95, -z+0.3'
   '-y+3/4, -x+1/4, z+0.9'
   '-y+0.7, -x+0.3, -z+0.2'
   'y+1/2, x+0.9, z+0.8'
   'y+0.55, -x+0.2, z+0.95'
   '-y+0.65, x+0.8, -z+1/4'
   '-y+0.6, x+0.85, z+0.85'
   'y+0.4, -x+0.35, -z+0.35'
   'x+0.85, z+0.95, -y+0.7'
   '-x+0.35, -z+1/4, y+1/2'
   '-x+0.2, z+0.85, y+0.45'
   'x+0.8, -z+0.35, -y+3/4'
   '-x+0.3, -z+0.3, -y+0.6'
   'x+0.9, z+0.9, y+0.4'
   'x+0.95, -z+0.2, y+0.55'
   '-x+1/4, z+0.8, -y+0.65'
   'z+0.85, y+0.55, -x+0.3'
   '-z+0.35, -y+0.65, x+0.9'
   'z+0.95, -y+0.6, x+0.95'
   '-z+1/4, y+0.4, -x+1/4'
   '-z+0.2, y+0.45, x+0.85'
   'z+0.8, -y+3/4, -x+0.35'
   '-z+0.3, -y+0.7, -x+0.2'
   'z+0.9, y+1/2, x+0.8'
   'x+0.8, y+0.6, z'
   '-x+0.2, -y+0.4, -z'
   '-x+0.35, -y+0.45, z+0.1'
   'x+0.85, y+3/4, -z+0.1'
   '-x+1/4, y+0.7, -z+0.15'
   'x+0.95, -y+1/2, z+0.05'
   'x+0.9, -y+0.55, -z+0.05'
   '-x+0.3, y+0.65, z+0.15'
   'z, x+0.8, y+0.6'
   '-z, -x+0.2, -y+0.4'
   'z+0.1, -x+0.35, -y+0.45'
   '-z+0.1, x+0.85, y+3/4'
   '-z+0.15, -x+1/4, y+0.7'
   'z+0.05, x+0.95, -y+1/2'
   '-z+0.05, x+0.9, -y+0.55'
   'z+0.15, -x+0.3, y+0.65'
   'y+0.6, z, x+0.8'
   '-y+0.4, -z, -x+0.2'
   '-y+0.45, z+0.1, -x+0.35'
   'y+3/4, -z+0.1, x+0.85'
   'y+0.7, -z+0.15, -x+1/4'
   '-y+1/2, z+0.05, x+0.95'
   '-y+0.55, -z+0.05, x+0.9'
   'y+0.65, z+0.15, -x+0.3'
   'y+3/4, x+0.85, -z+0.1'
   '-y+0.45, -x+0.35, z+0.1'
   '-y+0.4, -x+0.2, -z'
   'y+0.6, x+0.8, z'
   'y+0.65, -x+0.3, z+0.15'
   '-y+0.55, x+0.9, -z+0.05'
   '-y+1/2, x+0.95, z+0.05'
   'y+0.7, -x+1/4, -z+0.15'
   'x+0.95, z+0.05, -y+1/2'
   '-x+1/4, -z+0.15, y+0.7'
   '-x+0.3, z+0.15, y+0.65'
   'x+0.9, -z+0.05, -y+0.55'
   '-x+0.2, -z, -y+0.4'
   'x+0.8, z, y+0.6'
   'x+0.85, -z+0.1, y+3/4'
   '-x+0.35, z+0.1, -y+0.45'
   'z+0.15, y+0.65, -x+0.3'
   '-z+0.05, -y+0.55, x+0.9'
   'z+0.05, -y+1/2, x+0.95'
   '-z+0.15, y+0.7, -x+1/4'
   '-z+0.1, y+3/4, x+0.85'
   'z+0.1, -y+0.45, -x+0.35'
   '-z, -y+0.4, -x+0.2'
   'z, y+0.6, x+0.8'
   'x+0.8, y+0.7, z+0.1'
   '-x+0.2, -y+1/2, -z+0.1'
   '-x+0.35, -y+0.55, z'
   'x+0.85, y+0.65, -z'
   '-x+1/4, y+0.6, -z+0.05'
   'x+0.95, -y+0.4, z+0.15'
   'x+0.9, -y+0.45, -z+0.15'
   '-x+0.3, y+3/4, z+0.05'
   'z, x+0.9, y+0.7'
   '-z, -x+0.3, -y+1/2'
   'z+0.1, -x+1/4, -y+0.55'
   '-z+0.1, x+0.95, y+0.65'
   '-z+0.15, -x+0.35, y+0.6'
   'z+0.05, x+0.85, -y+0.4'
   '-z+0.05, x+0.8, -y+0.45'
   'z+0.15, -x+0.2, y+3/4'
   'y+0.6, z+0.1, x+0.9'
   '-y+0.4, -z+0.1, -x+0.3'
   '-y+0.45, z, -x+1/4'
   'y+3/4, -z, x+0.95'
   'y+0.7, -z+0.05, -x+0.35'
   '-y+1/2, z+0.15, x+0.85'
   '-y+0.55, -z+0.15, x+0.8'
   'y+0.65, z+0.05, -x+0.2'
   'y+3/4, x+0.95, -z'
   '-y+0.45, -x+1/4, z'
   '-y+0.4, -x+0.3, -z+0.1'
   'y+0.6, x+0.9, z+0.1'
   'y+0.65, -x+0.2, z+0.05'
   '-y+0.55, x+0.8, -z+0.15'
   '-y+1/2, x+0.85, z+0.15'
   'y+0.7, -x+0.35, -z+0.05'
   'x+0.95, z+0.15, -y+0.4'
   '-x+1/4, -z+0.05, y+0.6'
   '-x+0.3, z+0.05, y+3/4'
   'x+0.9, -z+0.15, -y+0.45'
   '-x+0.2, -z+0.1, -y+1/2'
   'x+0.8, z+0.1, y+0.7'
   'x+0.85, -z, y+0.65'
   '-x+0.35, z, -y+0.55'
   'z+0.15, y+3/4, -x+0.2'
   '-z+0.05, -y+0.45, x+0.8'
   'z+0.05, -y+0.4, x+0.85'
   '-z+0.15, y+0.6, -x+0.35'
   '-z+0.1, y+0.65, x+0.95'
   'z+0.1, -y+0.55, -x+1/4'
   '-z, -y+1/2, -x+0.3'
   'z, y+0.7, x+0.9'
   'x+0.9, y+0.6, z+0.1'
   '-x+0.3, -y+0.4, -z+0.1'
   '-x+1/4, -y+0.45, z'
   'x+0.95, y+3/4, -z'
   '-x+0.35, y+0.7, -z+0.05'
   'x+0.85, -y+1/2, z+0.15'
   'x+0.8, -y+0.55, -z+0.15'
   '-x+0.2, y+0.65, z+0.05'
   'z+0.1, x+0.8, y+0.7'
   '-z+0.1, -x+0.2, -y+1/2'
   'z, -x+0.35, -y+0.55'
   '-z, x+0.85, y+0.65'
   '-z+0.05, -x+1/4, y+0.6'
   'z+0.15, x+0.95, -y+0.4'
   '-z+0.15, x+0.9, -y+0.45'
   'z+0.05, -x+0.3, y+3/4'
   'y+0.7, z, x+0.9'
   '-y+1/2, -z, -x+0.3'
   '-y+0.55, z+0.1, -x+1/4'
   'y+0.65, -z+0.1, x+0.95'
   'y+0.6, -z+0.15, -x+0.35'
   '-y+0.4, z+0.05, x+0.85'
   '-y+0.45, -z+0.05, x+0.8'
   'y+3/4, z+0.15, -x+0.2'
   'y+0.65, x+0.85, -z'
   '-y+0.55, -x+0.35, z'
   '-y+1/2, -x+0.2, -z+0.1'
   'y+0.7, x+0.8, z+0.1'
   'y+3/4, -x+0.3, z+0.05'
   '-y+0.45, x+0.9, -z+0.15'
   '-y+0.4, x+0.95, z+0.15'
   'y+0.6, -x+1/4, -z+0.05'
   'x+0.85, z+0.05, -y+0.4'
   '-x+0.35, -z+0.15, y+0.6'
   '-x+0.2, z+0.15, y+3/4'
   'x+0.8, -z+0.05, -y+0.45'
   '-x+0.3, -z, -y+1/2'
   'x+0.9, z, y+0.7'
   'x+0.95, -z+0.1, y+0.65'
   '-x+1/4, z+0.1, -y+0.55'
   'z+0.05, y+0.65, -x+0.2'
   '-z+0.15, -y+0.55, x+0.8'
   'z+0.15, -y+1/2, x+0.85'
   '-z+0.05, y+0.7, -x+0.35'
   '-z, y+3/4, x+0.95'
   'z, -y+0.45, -x+1/4'
   '-z+0.1, -y+0.4, -x+0.3'
   'z+0.1, y+0.6, x+0.9'
   'x+0.9, y+0.7, z'
   '-x+0.3, -y+1/2, -z'
   '-x+1/4, -y+0.55, z+0.1'
   'x+0.95, y+0.65, -z+0.1'
   '-x+0.35, y+0.6, -z+0.15'
   'x+0.85, -y+0.4, z+0.05'
   'x+0.8, -y+0.45, -z+0.05'
   '-x+0.2, y+3/4, z+0.15'
   'z+0.1, x+0.9, y+0.6'
   '-z+0.1, -x+0.3, -y+0.4'
   'z, -x+1/4, -y+0.45'
   '-z, x+0.95, y+3/4'
   '-z+0.05, -x+0.35, y+0.7'
   'z+0.15, x+0.85, -y+1/2'
   '-z+0.15, x+0.8, -y+0.55'
   'z+0.05, -x+0.2, y+0.65'
   'y+0.7, z+0.1, x+0.8'
   '-y+1/2, -z+0.1, -x+0.2'
   '-y+0.55, z, -x+0.35'
   'y+0.65, -z, x+0.85'
   'y+0.6, -z+0.05, -x+1/4'
   '-y+0.4, z+0.15, x+0.95'
   '-y+0.45, -z+0.15, x+0.9'
   'y+3/4, z+0.05, -x+0.3'
   'y+0.65, x+0.95, -z+0.1'
   '-y+0.55, -x+1/4, z+0.1'
   '-y+1/2, -x+0.3, -z'
   'y+0.7, x+0.9, z'
   'y+3/4, -x+0.2, z+0.15'
   '-y+0.45, x+0.8, -z+0.05'
   '-y+0.4, x+0.85, z+0.05'
   'y+0.6, -x+0.35, -z+0.15'
   'x+0.85, z+0.15, -y+1/2'
   '-x+0.35, -z+0.05, y+0.7'
   '-x+0.2, z+0.05, y+0.65'
   'x+0.8, -z+0.15, -y+0.55'
   '-x+0.3, -z+0.1, -y+0.4'
   'x+0.9, z+0.1, y+0.6'
   'x+0.95, -z, y+3/4'
   '-x+1/4, z, -y+0.45'
   'z+0.05, y+3/4, -x+0.3'
   '-z+0.15, -y+0.45, x+0.9'
   'z+0.15, -y+0.4, x+0.95'
   '-z+0.05, y+0.6, -x+1/4'
   '-z, y+0.65, x+0.85'
   'z, -y+0.55, -x+0.35'
   '-z+0.1, -y+1/2, -x+0.2'
   'z+0.1, y+0.7, x+0.8'
   'x+0.8, y+0.6, z+0.2'
   '-x+0.2, -y+0.4, -z+0.8'
   '-x+0.35, -y+0.45, z+0.3'
   'x+0.85, y+3/4, -z+0.9'
   '-x+1/4, y+0.7, -z+0.95'
   'x+0.95, -y+1/2, z+1/4'
   'x+0.9, -y+0.55, -z+0.85'
   '-x+0.3, y+0.65, z+0.35'
   'z+0.2, x+0.8, y+0.6'
   '-z+0.8, -x+0.2, -y+0.4'
   'z+0.3, -x+0.35, -y+0.45'
   '-z+0.9, x+0.85, y+3/4'
   '-z+0.95, -x+1/4, y+0.7'
   'z+1/4, x+0.95, -y+1/2'
   '-z+0.85, x+0.9, -y+0.55'
   'z+0.35, -x+0.3, y+0.65'
   'y+0.6, z+0.2, x+0.8'
   '-y+0.4, -z+0.8, -x+0.2'
   '-y+0.45, z+0.3, -x+0.35'
   'y+3/4, -z+0.9, x+0.85'
   'y+0.7, -z+0.95, -x+1/4'
   '-y+1/2, z+1/4, x+0.95'
   '-y+0.55, -z+0.85, x+0.9'
   'y+0.65, z+0.35, -x+0.3'
   'y+3/4, x+0.85, -z+0.9'
   '-y+0.45, -x+0.35, z+0.3'
   '-y+0.4, -x+0.2, -z+0.8'
   'y+0.6, x+0.8, z+0.2'
   'y+0.65, -x+0.3, z+0.35'
   '-y+0.55, x+0.9, -z+0.85'
   '-y+1/2, x+0.95, z+1/4'
   'y+0.7, -x+1/4, -z+0.95'
   'x+0.95, z+1/4, -y+1/2'
   '-x+1/4, -z+0.95, y+0.7'
   '-x+0.3, z+0.35, y+0.65'
   'x+0.9, -z+0.85, -y+0.55'
   '-x+0.2, -z+0.8, -y+0.4'
   'x+0.8, z+0.2, y+0.6'
   'x+0.85, -z+0.9, y+3/4'
   '-x+0.35, z+0.3, -y+0.45'
   'z+0.35, y+0.65, -x+0.3'
   '-z+0.85, -y+0.55, x+0.9'
   'z+1/4, -y+1/2, x+0.95'
   '-z+0.95, y+0.7, -x+1/4'
   '-z+0.9, y+3/4, x+0.85'
   'z+0.3, -y+0.45, -x+0.35'
   '-z+0.8, -y+0.4, -x+0.2'
   'z+0.2, y+0.6, x+0.8'
   'x+0.8, y+0.7, z+0.3'
   '-x+0.2, -y+1/2, -z+0.9'
   '-x+0.35, -y+0.55, z+0.2'
   'x+0.85, y+0.65, -z+0.8'
   '-x+1/4, y+0.6, -z+0.85'
   'x+0.95, -y+0.4, z+0.35'
   'x+0.9, -y+0.45, -z+0.95'
   '-x+0.3, y+3/4, z+1/4'
   'z+0.2, x+0.9, y+0.7'
   '-z+0.8, -x+0.3, -y+1/2'
   'z+0.3, -x+1/4, -y+0.55'
   '-z+0.9, x+0.95, y+0.65'
   '-z+0.95, -x+0.35, y+0.6'
   'z+1/4, x+0.85, -y+0.4'
   '-z+0.85, x+0.8, -y+0.45'
   'z+0.35, -x+0.2, y+3/4'
   'y+0.6, z+0.3, x+0.9'
   '-y+0.4, -z+0.9, -x+0.3'
   '-y+0.45, z+0.2, -x+1/4'
   'y+3/4, -z+0.8, x+0.95'
   'y+0.7, -z+0.85, -x+0.35'
   '-y+1/2, z+0.35, x+0.85'
   '-y+0.55, -z+0.95, x+0.8'
   'y+0.65, z+1/4, -x+0.2'
   'y+3/4, x+0.95, -z+0.8'
   '-y+0.45, -x+1/4, z+0.2'
   '-y+0.4, -x+0.3, -z+0.9'
   'y+0.6, x+0.9, z+0.3'
   'y+0.65, -x+0.2, z+1/4'
   '-y+0.55, x+0.8, -z+0.95'
   '-y+1/2, x+0.85, z+0.35'
   'y+0.7, -x+0.35, -z+0.85'
   'x+0.95, z+0.35, -y+0.4'
   '-x+1/4, -z+0.85, y+0.6'
   '-x+0.3, z+1/4, y+3/4'
   'x+0.9, -z+0.95, -y+0.45'
   '-x+0.2, -z+0.9, -y+1/2'
   'x+0.8, z+0.3, y+0.7'
   'x+0.85, -z+0.8, y+0.65'
   '-x+0.35, z+0.2, -y+0.55'
   'z+0.35, y+3/4, -x+0.2'
   '-z+0.85, -y+0.45, x+0.8'
   'z+1/4, -y+0.4, x+0.85'
   '-z+0.95, y+0.6, -x+0.35'
   '-z+0.9, y+0.65, x+0.95'
   'z+0.3, -y+0.55, -x+1/4'
   '-z+0.8, -y+1/2, -x+0.3'
   'z+0.2, y+0.7, x+0.9'
   'x+0.9, y+0.6, z+0.3'
   '-x+0.3, -y+0.4, -z+0.9'
   '-x+1/4, -y+0.45, z+0.2'
   'x+0.95, y+3/4, -z+0.8'
   '-x+0.35, y+0.7, -z+0.85'
   'x+0.85, -y+1/2, z+0.35'
   'x+0.8, -y+0.55, -z+0.95'
   '-x+0.2, y+0.65, z+1/4'
   'z+0.3, x+0.8, y+0.7'
   '-z+0.9, -x+0.2, -y+1/2'
   'z+0.2, -x+0.35, -y+0.55'
   '-z+0.8, x+0.85, y+0.65'
   '-z+0.85, -x+1/4, y+0.6'
   'z+0.35, x+0.95, -y+0.4'
   '-z+0.95, x+0.9, -y+0.45'
   'z+1/4, -x+0.3, y+3/4'
   'y+0.7, z+0.2, x+0.9'
   '-y+1/2, -z+0.8, -x+0.3'
   '-y+0.55, z+0.3, -x+1/4'
   'y+0.65, -z+0.9, x+0.95'
   'y+0.6, -z+0.95, -x+0.35'
   '-y+0.4, z+1/4, x+0.85'
   '-y+0.45, -z+0.85, x+0.8'
   'y+3/4, z+0.35, -x+0.2'
   'y+0.65, x+0.85, -z+0.8'
   '-y+0.55, -x+0.35, z+0.2'
   '-y+1/2, -x+0.2, -z+0.9'
   'y+0.7, x+0.8, z+0.3'
   'y+3/4, -x+0.3, z+1/4'
   '-y+0.45, x+0.9, -z+0.95'
   '-y+0.4, x+0.95, z+0.35'
   'y+0.6, -x+1/4, -z+0.85'
   'x+0.85, z+1/4, -y+0.4'
   '-x+0.35, -z+0.95, y+0.6'
   '-x+0.2, z+0.35, y+3/4'
   'x+0.8, -z+0.85, -y+0.45'
   '-x+0.3, -z+0.8, -y+1/2'
   'x+0.9, z+0.2, y+0.7'
   'x+0.95, -z+0.9, y+0.65'
   '-x+1/4, z+0.3, -y+0.55'
   'z+1/4, y+0.65, -x+0.2'
   '-z+0.95, -y+0.55, x+0.8'
   'z+0.35, -y+1/2, x+0.85'
   '-z+0.85, y+0.7, -x+0.35'
   '-z+0.8, y+3/4, x+0.95'
   'z+0.2, -y+0.45, -x+1/4'
   '-z+0.9, -y+0.4, -x+0.3'
   'z+0.3, y+0.6, x+0.9'
   'x+0.9, y+0.7, z+0.2'
   '-x+0.3, -y+1/2, -z+0.8'
   '-x+1/4, -y+0.55, z+0.3'
   'x+0.95, y+0.65, -z+0.9'
   '-x+0.35, y+0.6, -z+0.95'
   'x+0.85, -y+0.4, z+1/4'
   'x+0.8, -y+0.45, -z+0.85'
   '-x+0.2, y+3/4, z+0.35'
   'z+0.3, x+0.9, y+0.6'
   '-z+0.9, -x+0.3, -y+0.4'
   'z+0.2, -x+1/4, -y+0.45'
   '-z+0.8, x+0.95, y+3/4'
   '-z+0.85, -x+0.35, y+0.7'
   'z+0.35, x+0.85, -y+1/2'
   '-z+0.95, x+0.8, -y+0.55'
   'z+1/4, -x+0.2, y+0.65'
   'y+0.7, z+0.3, x+0.8'
   '-y+1/2, -z+0.9, -x+0.2'
   '-y+0.55, z+0.2, -x+0.35'
   'y+0.65, -z+0.8, x+0.85'
   'y+0.6, -z+0.85, -x+1/4'
   '-y+0.4, z+0.35, x+0.95'
   '-y+0.45, -z+0.95, x+0.9'
   'y+3/4, z+1/4, -x+0.3'
   'y+0.65, x+0.95, -z+0.9'
   '-y+0.55, -x+1/4, z+0.3'
   '-y+1/2, -x+0.3, -z+0.8'
   'y+0.7, x+0.9, z+0.2'
   'y+3/4, -x+0.2, z+0.35'
   '-y+0.45, x+0.8, -z+0.85'
   '-y+0.4, x+0.85, z+1/4'
   'y+0.6, -x+0.35, -z+0.95'
   'x+0.85, z+0.35, -y+1/2'
   '-x+0.35, -z+0.85, y+0.7'
   '-x+0.2, z+1/4, y+0.65'
   'x+0.8, -z+0.95, -y+0.55'
   '-x+0.3, -z+0.9, -y+0.4'
   'x+0.9, z+0.3, y+0.6'
   'x+0.95, -z+0.8, y+3/4'
   '-x+1/4, z+0.2, -y+0.45'
   'z+1/4, y+3/4, -x+0.3'
   '-z+0.95, -y+0.45, x+0.9'
   'z+0.35, -y+0.4, x+0.95'
   '-z+0.85, y+0.6, -x+1/4'
   '-z+0.8, y+0.65, x+0.85'
   'z+0.2, -y+0.55, -x+0.35'
   '-z+0.9, -y+1/2, -x+0.2'
   'z+0.3, y+0.7, x+0.8'
   'x+0.8, y+0.6, z+0.4'
   '-x+0.2, -y+0.4, -z+0.6'
   '-x+0.35, -y+0.45, z+1/2'
   'x+0.85, y+3/4, -z+0.7'
   '-x+1/4, y+0.7, -z+3/4'
   'x+0.95, -y+1/2, z+0.45'
   'x+0.9, -y+0.55, -z+0.65'
   '-x+0.3, y+0.65, z+0.55'
   'z+0.4, x+0.8, y+0.6'
   '-z+0.6, -x+0.2, -y+0.4'
   'z+1/2, -x+0.35, -y+0.45'
   '-z+0.7, x+0.85, y+3/4'
   '-z+3/4, -x+1/4, y+0.7'
   'z+0.45, x+0.95, -y+1/2'
   '-z+0.65, x+0.9, -y+0.55'
   'z+0.55, -x+0.3, y+0.65'
   'y+0.6, z+0.4, x+0.8'
   '-y+0.4, -z+0.6, -x+0.2'
   '-y+0.45, z+1/2, -x+0.35'
   'y+3/4, -z+0.7, x+0.85'
   'y+0.7, -z+3/4, -x+1/4'
   '-y+1/2, z+0.45, x+0.95'
   '-y+0.55, -z+0.65, x+0.9'
   'y+0.65, z+0.55, -x+0.3'
   'y+3/4, x+0.85, -z+0.7'
   '-y+0.45, -x+0.35, z+1/2'
   '-y+0.4, -x+0.2, -z+0.6'
   'y+0.6, x+0.8, z+0.4'
   'y+0.65, -x+0.3, z+0.55'
   '-y+0.55, x+0.9, -z+0.65'
   '-y+1/2, x+0.95, z+0.45'
   'y+0.7, -x+1/4, -z+3/4'
   'x+0.95, z+0.45, -y+1/2'
   '-x+1/4, -z+3/4, y+0.7'
   '-x+0.3, z+0.55, y+0.65'
   'x+0.9, -z+0.65, -y+0.55'
   '-x+0.2, -z+0.6, -y+0.4'
   'x+0.8, z+0.4, y+0.6'
   'x+0.85, -z+0.7, y+3/4'
   '-x+0.35, z+1/2, -y+0.45'
   'z+0.55, y+0.65, -x+0.3'
   '-z+0.65, -y+0.55, x+0.9'
   'z+0.45, -y+1/2, x+0.95'
   '-z+3/4, y+0.7, -x+1/4'
   '-z+0.7, y+3/4, x+0.85'
   'z+1/2, -y+0.45, -x+0.35'
   '-z+0.6, -y+0.4, -x+0.2'
   'z+0.4, y+0.6, x+0.8'
   'x+0.8, y+0.7, z+1/2'
   '-x+0.2, -y+1/2, -z+0.7'
   '-x+0.35, -y+0.55, z+0.4'
   'x+0.85, y+0.65, -z+0.6'
   '-x+1/4, y+0.6, -z+0.65'
   'x+0.95, -y+0.4, z+0.55'
   'x+0.9, -y+0.45, -z+3/4'
   '-x+0.3, y+3/4, z+0.45'
   'z+0.4, x+0.9, y+0.7'
   '-z+0.6, -x+0.3, -y+1/2'
   'z+1/2, -x+1/4, -y+0.55'
   '-z+0.7, x+0.95, y+0.65'
   '-z+3/4, -x+0.35, y+0.6'
   'z+0.45, x+0.85, -y+0.4'
   '-z+0.65, x+0.8, -y+0.45'
   'z+0.55, -x+0.2, y+3/4'
   'y+0.6, z+1/2, x+0.9'
   '-y+0.4, -z+0.7, -x+0.3'
   '-y+0.45, z+0.4, -x+1/4'
   'y+3/4, -z+0.6, x+0.95'
   'y+0.7, -z+0.65, -x+0.35'
   '-y+1/2, z+0.55, x+0.85'
   '-y+0.55, -z+3/4, x+0.8'
   'y+0.65, z+0.45, -x+0.2'
   'y+3/4, x+0.95, -z+0.6'
   '-y+0.45, -x+1/4, z+0.4'
   '-y+0.4, -x+0.3, -z+0.7'
   'y+0.6, x+0.9, z+1/2'
   'y+0.65, -x+0.2, z+0.45'
   '-y+0.55, x+0.8, -z+3/4'
   '-y+1/2, x+0.85, z+0.55'
   'y+0.7, -x+0.35, -z+0.65'
   'x+0.95, z+0.55, -y+0.4'
   '-x+1/4, -z+0.65, y+0.6'
   '-x+0.3, z+0.45, y+3/4'
   'x+0.9, -z+3/4, -y+0.45'
   '-x+0.2, -z+0.7, -y+1/2'
   'x+0.8, z+1/2, y+0.7'
   'x+0.85, -z+0.6, y+0.65'
   '-x+0.35, z+0.4, -y+0.55'
   'z+0.55, y+3/4, -x+0.2'
   '-z+0.65, -y+0.45, x+0.8'
   'z+0.45, -y+0.4, x+0.85'
   '-z+3/4, y+0.6, -x+0.35'
   '-z+0.7, y+0.65, x+0.95'
   'z+1/2, -y+0.55, -x+1/4'
   '-z+0.6, -y+1/2, -x+0.3'
   'z+0.4, y+0.7, x+0.9'
   'x+0.9, y+0.6, z+1/2'
   '-x+0.3, -y+0.4, -z+0.7'
   '-x+1/4, -y+0.45, z+0.4'
   'x+0.95, y+3/4, -z+0.6'
   '-x+0.35, y+0.7, -z+0.65'
   'x+0.85, -y+1/2, z+0.55'
   'x+0.8, -y+0.55, -z+3/4'
   '-x+0.2, y+0.65, z+0.45'
   'z+1/2, x+0.8, y+0.7'
   '-z+0.7, -x+0.2, -y+1/2'
   'z+0.4, -x+0.35, -y+0.55'
   '-z+0.6, x+0.85, y+0.65'
   '-z+0.65, -x+1/4, y+0.6'
   'z+0.55, x+0.95, -y+0.4'
   '-z+3/4, x+0.9, -y+0.45'
   'z+0.45, -x+0.3, y+3/4'
   'y+0.7, z+0.4, x+0.9'
   '-y+1/2, -z+0.6, -x+0.3'
   '-y+0.55, z+1/2, -x+1/4'
   'y+0.65, -z+0.7, x+0.95'
   'y+0.6, -z+3/4, -x+0.35'
   '-y+0.4, z+0.45, x+0.85'
   '-y+0.45, -z+0.65, x+0.8'
   'y+3/4, z+0.55, -x+0.2'
   'y+0.65, x+0.85, -z+0.6'
   '-y+0.55, -x+0.35, z+0.4'
   '-y+1/2, -x+0.2, -z+0.7'
   'y+0.7, x+0.8, z+1/2'
   'y+3/4, -x+0.3, z+0.45'
   '-y+0.45, x+0.9, -z+3/4'
   '-y+0.4, x+0.95, z+0.55'
   'y+0.6, -x+1/4, -z+0.65'
   'x+0.85, z+0.45, -y+0.4'
   '-x+0.35, -z+3/4, y+0.6'
   '-x+0.2, z+0.55, y+3/4'
   'x+0.8, -z+0.65, -y+0.45'
   '-x+0.3, -z+0.6, -y+1/2'
   'x+0.9, z+0.4, y+0.7'
   'x+0.95, -z+0.7, y+0.65'
   '-x+1/4, z+1/2, -y+0.55'
   'z+0.45, y+0.65, -x+0.2'
   '-z+3/4, -y+0.55, x+0.8'
   'z+0.55, -y+1/2, x+0.85'
   '-z+0.65, y+0.7, -x+0.35'
   '-z+0.6, y+3/4, x+0.95'
   'z+0.4, -y+0.45, -x+1/4'
   '-z+0.7, -y+0.4, -x+0.3'
   'z+1/2, y+0.6, x+0.9'
   'x+0.9, y+0.7, z+0.4'
   '-x+0.3, -y+1/2, -z+0.6'
   '-x+1/4, -y+0.55, z+1/2'
   'x+0.95, y+0.65, -z+0.7'
   '-x+0.35, y+0.6, -z+3/4'
   'x+0.85, -y+0.4, z+0.45'
   'x+0.8, -y+0.45, -z+0.65'
   '-x+0.2, y+3/4, z+0.55'
   'z+1/2, x+0.9, y+0.6'
   '-z+0.7, -x+0.3, -y+0.4'
   'z+0.4, -x+1/4, -y+0.45'
   '-z+0.6, x+0.95, y+3/4'
   '-z+0.65, -x+0.35, y+0.7'
   'z+0.55, x+0.85, -y+1/2'
   '-z+3/4, x+0.8, -y+0.55'
   'z+0.45, -x+0.2, y+0.65'
   'y+0.7, z+1/2, x+0.8'
   '-y+1/2, -z+0.7, -x+0.2'
   '-y+0.55, z+0.4, -x+0.35'
   'y+0.65, -z+0.6, x+0.85'
   'y+0.6, -z+0.65, -x+1/4'
   '-y+0.4, z+0.55, x+0.95'
   '-y+0.45, -z+3/4, x+0.9'
   'y+3/4, z+0.45, -x+0.3'
   'y+0.65, x+0.95, -z+0.7'
   '-y+0.55, -x+1/4, z+1/2'
   '-y+1/2, -x+0.3, -z+0.6'
   'y+0.7, x+0.9, z+0.4'
   'y+3/4, -x+0.2, z+0.55'
   '-y+0.45, x+0.8, -z+0.65'
   '-y+0.4, x+0.85, z+0.45'
   'y+0.6, -x+0.35, -z+3/4'
   'x+0.85, z+0.55, -y+1/2'
   '-x+0.35, -z+0.65, y+0.7'
   '-x+0.2, z+0.45, y+0.65'
   'x+0.8, -z+3/4, -y+0.55'
   '-x+0.3, -z+0.7, -y+0.4'
   'x+0.9, z+1/2, y+0.6'
   'x+0.95, -z+0.6, y+3/4'
   '-x+1/4, z+0.4, -y+0.45'
   'z+0.45, y+3/4, -x+0.3'
   '-z+3/4, -y+0.45, x+0.9'
   'z+0.55, -y+0.4, x+0.95'
   '-z+0.65, y+0.6, -x+1/4'
   '-z+0.6, y+0.65, x+0.85'
   'z+0.4, -y+0.55, -x+0.35'
   '-z+0.7, -y+1/2, -x+0.2'
   'z+1/2, y+0.7, x+0.8'
   'x+0.8, y+0.6, z+0.6'
   '-x+0.2, -y+0.4, -z+0.4'
   '-x+0.35, -y+0.45, z+0.7'
   'x+0.85, y+3/4, -z+1/2'
   '-x+1/4, y+0.7, -z+0.55'
   'x+0.95, -y+1/2, z+0.65'
   'x+0.9, -y+0.55, -z+0.45'
   '-x+0.3, y+0.65, z+3/4'
   'z+0.6, x+0.8, y+0.6'
   '-z+0.4, -x+0.2, -y+0.4'
   'z+0.7, -x+0.35, -y+0.45'
   '-z+1/2, x+0.85, y+3/4'
   '-z+0.55, -x+1/4, y+0.7'
   'z+0.65, x+0.95, -y+1/2'
   '-z+0.45, x+0.9, -y+0.55'
   'z+3/4, -x+0.3, y+0.65'
   'y+0.6, z+0.6, x+0.8'
   '-y+0.4, -z+0.4, -x+0.2'
   '-y+0.45, z+0.7, -x+0.35'
   'y+3/4, -z+1/2, x+0.85'
   'y+0.7, -z+0.55, -x+1/4'
   '-y+1/2, z+0.65, x+0.95'
   '-y+0.55, -z+0.45, x+0.9'
   'y+0.65, z+3/4, -x+0.3'
   'y+3/4, x+0.85, -z+1/2'
   '-y+0.45, -x+0.35, z+0.7'
   '-y+0.4, -x+0.2, -z+0.4'
   'y+0.6, x+0.8, z+0.6'
   'y+0.65, -x+0.3, z+3/4'
   '-y+0.55, x+0.9, -z+0.45'
   '-y+1/2, x+0.95, z+0.65'
   'y+0.7, -x+1/4, -z+0.55'
   'x+0.95, z+0.65, -y+1/2'
   '-x+1/4, -z+0.55, y+0.7'
   '-x+0.3, z+3/4, y+0.65'
   'x+0.9, -z+0.45, -y+0.55'
   '-x+0.2, -z+0.4, -y+0.4'
   'x+0.8, z+0.6, y+0.6'
   'x+0.85, -z+1/2, y+3/4'
   '-x+0.35, z+0.7, -y+0.45'
   'z+3/4, y+0.65, -x+0.3'
   '-z+0.45, -y+0.55, x+0.9'
   'z+0.65, -y+1/2, x+0.95'
   '-z+0.55, y+0.7, -x+1/4'
   '-z+1/2, y+3/4, x+0.85'
   'z+0.7, -y+0.45, -x+0.35'
   '-z+0.4, -y+0.4, -x+0.2'
   'z+0.6, y+0.6, x+0.8'
   'x+0.8, y+0.7, z+0.7'
   '-x+0.2, -y+1/2, -z+1/2'
   '-x+0.35, -y+0.55, z+0.6'
   'x+0.85, y+0.65, -z+0.4'
   '-x+1/4, y+0.6, -z+0.45'
   'x+0.95, -y+0.4, z+3/4'
   'x+0.9, -y+0.45, -z+0.55'
   '-x+0.3, y+3/4, z+0.65'
   'z+0.6, x+0.9, y+0.7'
   '-z+0.4, -x+0.3, -y+1/2'
   'z+0.7, -x+1/4, -y+0.55'
   '-z+1/2, x+0.95, y+0.65'
   '-z+0.55, -x+0.35, y+0.6'
   'z+0.65, x+0.85, -y+0.4'
   '-z+0.45, x+0.8, -y+0.45'
   'z+3/4, -x+0.2, y+3/4'
   'y+0.6, z+0.7, x+0.9'
   '-y+0.4, -z+1/2, -x+0.3'
   '-y+0.45, z+0.6, -x+1/4'
   'y+3/4, -z+0.4, x+0.95'
   'y+0.7, -z+0.45, -x+0.35'
   '-y+1/2, z+3/4, x+0.85'
   '-y+0.55, -z+0.55, x+0.8'
   'y+0.65, z+0.65, -x+0.2'
   'y+3/4, x+0.95, -z+0.4'
   '-y+0.45, -x+1/4, z+0.6'
   '-y+0.4, -x+0.3, -z+1/2'
   'y+0.6, x+0.9, z+0.7'
   'y+0.65, -x+0.2, z+0.65'
   '-y+0.55, x+0.8, -z+0.55'
   '-y+1/2, x+0.85, z+3/4'
   'y+0.7, -x+0.35, -z+0.45'
   'x+0.95, z+3/4, -y+0.4'
   '-x+1/4, -z+0.45, y+0.6'
   '-x+0.3, z+0.65, y+3/4'
   'x+0.9, -z+0.55, -y+0.45'
   '-x+0.2, -z+1/2, -y+1/2'
   'x+0.8, z+0.7, y+0.7'
   'x+0.85, -z+0.4, y+0.65'
   '-x+0.35, z+0.6, -y+0.55'
   'z+3/4, y+3/4, -x+0.2'
   '-z+0.45, -y+0.45, x+0.8'
   'z+0.65, -y+0.4, x+0.85'
   '-z+0.55, y+0.6, -x+0.35'
   '-z+1/2, y+0.65, x+0.95'
   'z+0.7, -y+0.55, -x+1/4'
   '-z+0.4, -y+1/2, -x+0.3'
   'z+0.6, y+0.7, x+0.9'
   'x+0.9, y+0.6, z+0.7'
   '-x+0.3, -y+0.4, -z+1/2'
   '-x+1/4, -y+0.45, z+0.6'
   'x+0.95, y+3/4, -z+0.4'
   '-x+0.35, y+0.7, -z+0.45'
   'x+0.85, -y+1/2, z+3/4'
   'x+0.8, -y+0.55, -z+0.55'
   '-x+0.2, y+0.65, z+0.65'
   'z+0.7, x+0.8, y+0.7'
   '-z+1/2, -x+0.2, -y+1/2'
   'z+0.6, -x+0.35, -y+0.55'
   '-z+0.4, x+0.85, y+0.65'
   '-z+0.45, -x+1/4, y+0.6'
   'z+3/4, x+0.95, -y+0.4'
   '-z+0.55, x+0.9, -y+0.45'
   'z+0.65, -x+0.3, y+3/4'
   'y+0.7, z+0.6, x+0.9'
   '-y+1/2, -z+0.4, -x+0.3'
   '-y+0.55, z+0.7, -x+1/4'
   'y+0.65, -z+1/2, x+0.95'
   'y+0.6, -z+0.55, -x+0.35'
   '-y+0.4, z+0.65, x+0.85'
   '-y+0.45, -z+0.45, x+0.8'
   'y+3/4, z+3/4, -x+0.2'
   'y+0.65, x+0.85, -z+0.4'
   '-y+0.55, -x+0.35, z+0.6'
   '-y+1/2, -x+0.2, -z+1/2'
   'y+0.7, x+0.8, z+0.7'
   'y+3/4, -x+0.3, z+0.65'
   '-y+0.45, x+0.9, -z+0.55'
   '-y+0.4, x+0.95, z+3/4'
   'y+0.6, -x+1/4, -z+0.45'
   'x+0.85, z+0.65, -y+0.4'
   '-x+0.35, -z+0.55, y+0.6'
   '-x+0.2, z+3/4, y+3/4'
   'x+0.8, -z+0.45, -y+0.45'
   '-x+0.3, -z+0.4, -y+1/2'
   'x+0.9, z+0.6, y+0.7'
   'x+0.95, -z+1/2, y+0.65'
   '-x+1/4, z+0.7, -y+0.55'
   'z+0.65, y+0.65, -x+0.2'
   '-z+0.55, -y+0.55, x+0.8'
   'z+3/4, -y+1/2, x+0.85'
   '-z+0.45, y+0.7, -x+0.35'
   '-z+0.4, y+3/4, x+0.95'
   'z+0.6, -y+0.45, -x+1/4'
   '-z+1/2, -y+0.4, -x+0.3'
   'z+0.7, y+0.6, x+0.9'
   'x+0.9, y+0.7, z+0.6'
   '-x+0.3, -y+1/2, -z+0.4'
   '-x+1/4, -y+0.55, z+0.7'
   'x+0.95, y+0.65, -z+1/2'
   '-x+0.35, y+0.6, -z+0.55'
   'x+0.85, -y+0.4, z+0.65'
   'x+0.8, -y+0.45, -z+0.45'
   '-x+0.2, y+3/4, z+3/4'
   'z+0.7, x+0.9, y+0.6'
   '-z+1/2, -x+0.3, -y+0.4'
   'z+0.6, -x+1/4, -y+0.45'
   '-z+0.4, x+0.95, y+3/4'
   '-z+0.45, -x+0.35, y+0.7'
   'z+3/4, x+0.85, -y+1/2'
   '-z+0.55, x+0.8, -y+0.55'
   'z+0.65, -x+0.2, y+0.65'
   'y+0.7, z+0.7, x+0.8'
   '-y+1/2, -z+1/2, -x+0.2'
   '-y+0.55, z+0.6, -x+0.35'
   'y+0.65, -z+0.4, x+0.85'
   'y+0.6, -z+0.45, -x+1/4'
   '-y+0.4, z+3/4, x+0.95'
   '-y+0.45, -z+0.55, x+0.9'
   'y+3/4, z+0.65, -x+0.3'
   'y+0.65, x+0.95, -z+1/2'
   '-y+0.55, -x+1/4, z+0.7'
   '-y+1/2, -x+0.3, -z+0.4'
   'y+0.7, x+0.9, z+0.6'
   'y+3/4, -x+0.2, z+3/4'
   '-y+0.45, x+0.8, -z+0.45'
   '-y+0.4, x+0.85, z+0.65'
   'y+0.6, -x+0.35, -z+0.55'
   'x+0.85, z+3/4, -y+1/2'
   '-x+0.35, -z+0.45, y+0.7'
   '-x+0.2, z+0.65, y+0.65'
   'x+0.8, -z+0.55, -y+0.55'
   '-x+0.3, -z+1/2, -y+0.4'
   'x+0.9, z+0.7, y+0.6'
   'x+0.95, -z+0.4, y+3/4'
   '-x+1/4, z+0.6, -y+0.45'
   'z+0.65, y+3/4, -x+0.3'
   '-z+0.55, -y+0.45, x+0.9'
   'z+3/4, -y+0.4, x+0.95'
   '-z+0.45, y+0.6, -x+1/4'
   '-z+0.4, y+0.65, x+0.85'
   'z+0.6, -y+0.55, -x+0.35'
   '-z+1/2, -y+1/2, -x+0.2'
   'z+0.7, y+0.7, x+0.8'
   'x+0.8, y+0.6, z+0.8'
   '-x+0.2, -y+0.4, -z+0.2'
   '-x+0.35, -y+0.45, z+0.9'
   'x+0.85, y+3/4, -z+0.3'
   '-x+1/4, y+0.7, -z+0.35'
   'x+0.95, -y+1/2, z+0.85'
   'x+0.9, -y+0.55, -z+1/4'
   '-x+0.3, y+0.65, z+0.95'
   'z+0.8, x+0.8, y+0.6'
   '-z+0.2, -x+0.2, -y+0.4'
   'z+0.9, -x+0.35, -y+0.45'
   '-z+0.3, x+0.85, y+3/4'
   '-z+0.35, -x+1/4, y+0.7'
   'z+0.85, x+0.95, -y+1/2'
   '-z+1/4, x+0.9, -y+0.55'
   'z+0.95, -x+0.3, y+0.65'
   'y+0.6, z+0.8, x+0.8'
   '-y+0.4, -z+0.2, -x+0.2'
   '-y+0.45, z+0.9, -x+0.35'
   'y+3/4, -z+0.3, x+0.85'
   'y+0.7, -z+0.35, -x+1/4'
   '-y+1/2, z+0.85, x+0.95'
   '-y+0.55, -z+1/4, x+0.9'
   'y+0.65, z+0.95, -x+0.3'
   'y+3/4, x+0.85, -z+0.3'
   '-y+0.45, -x+0.35, z+0.9'
   '-y+0.4, -x+0.2, -z+0.2'
   'y+0.6, x+0.8, z+0.8'
   'y+0.65, -x+0.3, z+0.95'
   '-y+0.55, x+0.9, -z+1/4'
   '-y+1/2, x+0.95, z+0.85'
   'y+0.7, -x+1/4, -z+0.35'
   'x+0.95, z+0.85, -y+1/2'
   '-x+1/4, -z+0.35, y+0.7'
   '-x+0.3, z+0.95, y+0.65'
   'x+0.9, -z+1/4, -y+0.55'
   '-x+0.2, -z+0.2, -y+0.4'
   'x+0.8, z+0.8, y+0.6'
   'x+0.85, -z+0.3, y+3/4'
   '-x+0.35, z+0.9, -y+0.45'
   'z+0.95, y+0.65, -x+0.3'
   '-z+1/4, -y+0.55, x+0.9'
   'z+0.85, -y+1/2, x+0.95'
   '-z+0.35, y+0.7, -x+1/4'
   '-z+0.3, y+3/4, x+0.85'
   'z+0.9, -y+0.45, -x+0.35'
   '-z+0.2, -y+0.4, -x+0.2'
   'z+0.8, y+0.6, x+0.8'
   'x+0.8, y+0.7, z+0.9'
   '-x+0.2, -y+1/2, -z+0.3'
   '-x+0.35, -y+0.55, z+0.8'
   'x+0.85, y+0.65, -z+0.2'
   '-x+1/4, y+0.6, -z+1/4'
   'x+0.95, -y+0.4, z+0.95'
   'x+0.9, -y+0.45, -z+0.35'
   '-x+0.3, y+3/4, z+0.85'
   'z+0.8, x+0.9, y+0.7'
   '-z+0.2, -x+0.3, -y+1/2'
   'z+0.9, -x+1/4, -y+0.55'
   '-z+0.3, x+0.95, y+0.65'
   '-z+0.35, -x+0.35, y+0.6'
   'z+0.85, x+0.85, -y+0.4'
   '-z+1/4, x+0.8, -y+0.45'
   'z+0.95, -x+0.2, y+3/4'
   'y+0.6, z+0.9, x+0.9'
   '-y+0.4, -z+0.3, -x+0.3'
   '-y+0.45, z+0.8, -x+1/4'
   'y+3/4, -z+0.2, x+0.95'
   'y+0.7, -z+1/4, -x+0.35'
   '-y+1/2, z+0.95, x+0.85'
   '-y+0.55, -z+0.35, x+0.8'
   'y+0.65, z+0.85, -x+0.2'
   'y+3/4, x+0.95, -z+0.2'
   '-y+0.45, -x+1/4, z+0.8'
   '-y+0.4, -x+0.3, -z+0.3'
   'y+0.6, x+0.9, z+0.9'
   'y+0.65, -x+0.2, z+0.85'
   '-y+0.55, x+0.8, -z+0.35'
   '-y+1/2, x+0.85, z+0.95'
   'y+0.7, -x+0.35, -z+1/4'
   'x+0.95, z+0.95, -y+0.4'
   '-x+1/4, -z+1/4, y+0.6'
   '-x+0.3, z+0.85, y+3/4'
   'x+0.9, -z+0.35, -y+0.45'
   '-x+0.2, -z+0.3, -y+1/2'
   'x+0.8, z+0.9, y+0.7'
   'x+0.85, -z+0.2, y+0.65'
   '-x+0.35, z+0.8, -y+0.55'
   'z+0.95, y+3/4, -x+0.2'
   '-z+1/4, -y+0.45, x+0.8'
   'z+0.85, -y+0.4, x+0.85'
   '-z+0.35, y+0.6, -x+0.35'
   '-z+0.3, y+0.65, x+0.95'
   'z+0.9, -y+0.55, -x+1/4'
   '-z+0.2, -y+1/2, -x+0.3'
   'z+0.8, y+0.7, x+0.9'
   'x+0.9, y+0.6, z+0.9'
   '-x+0.3, -y+0.4, -z+0.3'
   '-x+1/4, -y+0.45, z+0.8'
   'x+0.95, y+3/4, -z+0.2'
   '-x+0.35, y+0.7, -z+1/4'
   'x+0.85, -y+1/2, z+0.95'
   'x+0.8, -y+0.55, -z+0.35'
   '-x+0.2, y+0.65, z+0.85'
   'z+0.9, x+0.8, y+0.7'
   '-z+0.3, -x+0.2, -y+1/2'
   'z+0.8, -x+0.35, -y+0.55'
   '-z+0.2, x+0.85, y+0.65'
   '-z+1/4, -x+1/4, y+0.6'
   'z+0.95, x+0.95, -y+0.4'
   '-z+0.35, x+0.9, -y+0.45'
   'z+0.85, -x+0.3, y+3/4'
   'y+0.7, z+0.8, x+0.9'
   '-y+1/2, -z+0.2, -x+0.3'
   '-y+0.55, z+0.9, -x+1/4'
   'y+0.65, -z+0.3, x+0.95'
   'y+0.6, -z+0.35, -x+0.35'
   '-y+0.4, z+0.85, x+0.85'
   '-y+0.45, -z+1/4, x+0.8'
   'y+3/4, z+0.95, -x+0.2'
   'y+0.65, x+0.85, -z+0.2'
   '-y+0.55, -x+0.35, z+0.8'
   '-y+1/2, -x+0.2, -z+0.3'
   'y+0.7, x+0.8, z+0.9'
   'y+3/4, -x+0.3, z+0.85'
   '-y+0.45, x+0.9, -z+0.35'
   '-y+0.4, x+0.95, z+0.95'
   'y+0.6, -x+1/4, -z+1/4'
   'x+0.85, z+0.85, -y+0.4'
   '-x+0.35, -z+0.35, y+0.6'
   '-x+0.2, z+0.95, y+3/4'
   'x+0.8, -z+1/4, -y+0.45'
   '-x+0.3, -z+0.2, -y+1/2'
   'x+0.9, z+0.8, y+0.7'
   'x+0.95, -z+0.3, y+0.65'
   '-x+1/4, z+0.9, -y+0.55'
   'z+0.85, y+0.65, -x+0.2'
   '-z+0.35, -y+0.55, x+0.8'
   'z+0.95, -y+1/2, x+0.85'
   '-z+1/4, y+0.7, -x+0.35'
   '-z+0.2, y+3/4, x+0.95'
   'z+0.8, -y+0.45, -x+1/4'
   '-z+0.3, -y+0.4, -x+0.3'
   'z+0.9, y+0.6, x+0.9'
   'x+0.9, y+0.7, z+0.8'
   '-x+0.3, -y+1/2, -z+0.2'
   '-x+1/4, -y+0.55, z+0.9'
   'x+0.95, y+0.65, -z+0.3'
   '-x+0.35, y+0.6, -z+0.35'
   'x+0.85, -y+0.4, z+0.85'
   'x+0.8, -y+0.45, -z+1/4'
   '-x+0.2, y+3/4, z+0.95'
   'z+0.9, x+0.9, y+0.6'
   '-z+0.3, -x+0.3, -y+0.4'
   'z+0.8, -x+1/4, -y+0.45'
   '-z+0.2, x+0.95, y+3/4'
   '-z+1/4, -x+0.35, y+0.7'
   'z+0.95, x+0.85, -y+1/2'
   '-z+0.35, x+0.8, -y+0.55'
   'z+0.85, -x+0.2, y+0.65'
   'y+0.7, z+0.9, x+0.8'
   '-y+1/2, -z+0.3, -x+0.2'
   '-y+0.55, z+0.8, -x+0.35'
   'y+0.65, -z+0.2, x+0.85'
   'y+0.6, -z+1/4, -x+1/4'
   '-y+0.4, z+0.95, x+0.95'
   '-y+0.45, -z+0.35, x+0.9'
   'y+3/4, z+0.85, -x+0.3'
   'y+0.65, x+0.95, -z+0.3'
   '-y+0.55, -x+1/4, z+0.9'
   '-y+1/2, -x+0.3, -z+0.2'
   'y+0.7, x+0.9, z+0.8'
   'y+3/4, -x+0.2, z+0.95'
   '-y+0.45, x+0.8, -z+1/4'
   '-y+0.4, x+0.85, z+0.85'
   'y+0.6, -x+0.35, -z+0.35'
   'x+0.85, z+0.95, -y+1/2'
   '-x+0.35, -z+1/4, y+0.7'
   '-x+0.2, z+0.85, y+0.65'
   'x+0.8, -z+0.35, -y+0.55'
   '-x+0.3, -z+0.3, -y+0.4'
   'x+0.9, z+0.9, y+0.6'
   'x+0.95, -z+0.2, y+3/4'
   '-x+1/4, z+0.8, -y+0.45'
   'z+0.85, y+3/4, -x+0.3'
   '-z+0.35, -y+0.45, x+0.9'
   'z+0.95, -y+0.4, x+0.95'
   '-z+1/4, y+0.6, -x+1/4'
   '-z+0.2, y+0.65, x+0.85'
   'z+0.8, -y+0.55, -x+0.35'
   '-z+0.3, -y+1/2, -x+0.2'
   'z+0.9, y+0.7, x+0.8'
   'x+0.8, y+0.8, z'
   '-x+0.2, -y+0.2, -z'
   '-x+0.35, -y+1/4, z+0.1'
   'x+0.85, y+0.95, -z+0.1'
   '-x+1/4, y+0.9, -z+0.15'
   'x+0.95, -y+0.3, z+0.05'
   'x+0.9, -y+0.35, -z+0.05'
   '-x+0.3, y+0.85, z+0.15'
   'z, x+0.8, y+0.8'
   '-z, -x+0.2, -y+0.2'
   'z+0.1, -x+0.35, -y+1/4'
   '-z+0.1, x+0.85, y+0.95'
   '-z+0.15, -x+1/4, y+0.9'
   'z+0.05, x+0.95, -y+0.3'
   '-z+0.05, x+0.9, -y+0.35'
   'z+0.15, -x+0.3, y+0.85'
   'y+0.8, z, x+0.8'
   '-y+0.2, -z, -x+0.2'
   '-y+1/4, z+0.1, -x+0.35'
   'y+0.95, -z+0.1, x+0.85'
   'y+0.9, -z+0.15, -x+1/4'
   '-y+0.3, z+0.05, x+0.95'
   '-y+0.35, -z+0.05, x+0.9'
   'y+0.85, z+0.15, -x+0.3'
   'y+0.95, x+0.85, -z+0.1'
   '-y+1/4, -x+0.35, z+0.1'
   '-y+0.2, -x+0.2, -z'
   'y+0.8, x+0.8, z'
   'y+0.85, -x+0.3, z+0.15'
   '-y+0.35, x+0.9, -z+0.05'
   '-y+0.3, x+0.95, z+0.05'
   'y+0.9, -x+1/4, -z+0.15'
   'x+0.95, z+0.05, -y+0.3'
   '-x+1/4, -z+0.15, y+0.9'
   '-x+0.3, z+0.15, y+0.85'
   'x+0.9, -z+0.05, -y+0.35'
   '-x+0.2, -z, -y+0.2'
   'x+0.8, z, y+0.8'
   'x+0.85, -z+0.1, y+0.95'
   '-x+0.35, z+0.1, -y+1/4'
   'z+0.15, y+0.85, -x+0.3'
   '-z+0.05, -y+0.35, x+0.9'
   'z+0.05, -y+0.3, x+0.95'
   '-z+0.15, y+0.9, -x+1/4'
   '-z+0.1, y+0.95, x+0.85'
   'z+0.1, -y+1/4, -x+0.35'
   '-z, -y+0.2, -x+0.2'
   'z, y+0.8, x+0.8'
   'x+0.8, y+0.9, z+0.1'
   '-x+0.2, -y+0.3, -z+0.1'
   '-x+0.35, -y+0.35, z'
   'x+0.85, y+0.85, -z'
   '-x+1/4, y+0.8, -z+0.05'
   'x+0.95, -y+0.2, z+0.15'
   'x+0.9, -y+1/4, -z+0.15'
   '-x+0.3, y+0.95, z+0.05'
   'z, x+0.9, y+0.9'
   '-z, -x+0.3, -y+0.3'
   'z+0.1, -x+1/4, -y+0.35'
   '-z+0.1, x+0.95, y+0.85'
   '-z+0.15, -x+0.35, y+0.8'
   'z+0.05, x+0.85, -y+0.2'
   '-z+0.05, x+0.8, -y+1/4'
   'z+0.15, -x+0.2, y+0.95'
   'y+0.8, z+0.1, x+0.9'
   '-y+0.2, -z+0.1, -x+0.3'
   '-y+1/4, z, -x+1/4'
   'y+0.95, -z, x+0.95'
   'y+0.9, -z+0.05, -x+0.35'
   '-y+0.3, z+0.15, x+0.85'
   '-y+0.35, -z+0.15, x+0.8'
   'y+0.85, z+0.05, -x+0.2'
   'y+0.95, x+0.95, -z'
   '-y+1/4, -x+1/4, z'
   '-y+0.2, -x+0.3, -z+0.1'
   'y+0.8, x+0.9, z+0.1'
   'y+0.85, -x+0.2, z+0.05'
   '-y+0.35, x+0.8, -z+0.15'
   '-y+0.3, x+0.85, z+0.15'
   'y+0.9, -x+0.35, -z+0.05'
   'x+0.95, z+0.15, -y+0.2'
   '-x+1/4, -z+0.05, y+0.8'
   '-x+0.3, z+0.05, y+0.95'
   'x+0.9, -z+0.15, -y+1/4'
   '-x+0.2, -z+0.1, -y+0.3'
   'x+0.8, z+0.1, y+0.9'
   'x+0.85, -z, y+0.85'
   '-x+0.35, z, -y+0.35'
   'z+0.15, y+0.95, -x+0.2'
   '-z+0.05, -y+1/4, x+0.8'
   'z+0.05, -y+0.2, x+0.85'
   '-z+0.15, y+0.8, -x+0.35'
   '-z+0.1, y+0.85, x+0.95'
   'z+0.1, -y+0.35, -x+1/4'
   '-z, -y+0.3, -x+0.3'
   'z, y+0.9, x+0.9'
   'x+0.9, y+0.8, z+0.1'
   '-x+0.3, -y+0.2, -z+0.1'
   '-x+1/4, -y+1/4, z'
   'x+0.95, y+0.95, -z'
   '-x+0.35, y+0.9, -z+0.05'
   'x+0.85, -y+0.3, z+0.15'
   'x+0.8, -y+0.35, -z+0.15'
   '-x+0.2, y+0.85, z+0.05'
   'z+0.1, x+0.8, y+0.9'
   '-z+0.1, -x+0.2, -y+0.3'
   'z, -x+0.35, -y+0.35'
   '-z, x+0.85, y+0.85'
   '-z+0.05, -x+1/4, y+0.8'
   'z+0.15, x+0.95, -y+0.2'
   '-z+0.15, x+0.9, -y+1/4'
   'z+0.05, -x+0.3, y+0.95'
   'y+0.9, z, x+0.9'
   '-y+0.3, -z, -x+0.3'
   '-y+0.35, z+0.1, -x+1/4'
   'y+0.85, -z+0.1, x+0.95'
   'y+0.8, -z+0.15, -x+0.35'
   '-y+0.2, z+0.05, x+0.85'
   '-y+1/4, -z+0.05, x+0.8'
   'y+0.95, z+0.15, -x+0.2'
   'y+0.85, x+0.85, -z'
   '-y+0.35, -x+0.35, z'
   '-y+0.3, -x+0.2, -z+0.1'
   'y+0.9, x+0.8, z+0.1'
   'y+0.95, -x+0.3, z+0.05'
   '-y+1/4, x+0.9, -z+0.15'
   '-y+0.2, x+0.95, z+0.15'
   'y+0.8, -x+1/4, -z+0.05'
   'x+0.85, z+0.05, -y+0.2'
   '-x+0.35, -z+0.15, y+0.8'
   '-x+0.2, z+0.15, y+0.95'
   'x+0.8, -z+0.05, -y+1/4'
   '-x+0.3, -z, -y+0.3'
   'x+0.9, z, y+0.9'
   'x+0.95, -z+0.1, y+0.85'
   '-x+1/4, z+0.1, -y+0.35'
   'z+0.05, y+0.85, -x+0.2'
   '-z+0.15, -y+0.35, x+0.8'
   'z+0.15, -y+0.3, x+0.85'
   '-z+0.05, y+0.9, -x+0.35'
   '-z, y+0.95, x+0.95'
   'z, -y+1/4, -x+1/4'
   '-z+0.1, -y+0.2, -x+0.3'
   'z+0.1, y+0.8, x+0.9'
   'x+0.9, y+0.9, z'
   '-x+0.3, -y+0.3, -z'
   '-x+1/4, -y+0.35, z+0.1'
   'x+0.95, y+0.85, -z+0.1'
   '-x+0.35, y+0.8, -z+0.15'
   'x+0.85, -y+0.2, z+0.05'
   'x+0.8, -y+1/4, -z+0.05'
   '-x+0.2, y+0.95, z+0.15'
   'z+0.1, x+0.9, y+0.8'
   '-z+0.1, -x+0.3, -y+0.2'
   'z, -x+1/4, -y+1/4'
   '-z, x+0.95, y+0.95'
   '-z+0.05, -x+0.35, y+0.9'
   'z+0.15, x+0.85, -y+0.3'
   '-z+0.15, x+0.8, -y+0.35'
   'z+0.05, -x+0.2, y+0.85'
   'y+0.9, z+0.1, x+0.8'
   '-y+0.3, -z+0.1, -x+0.2'
   '-y+0.35, z, -x+0.35'
   'y+0.85, -z, x+0.85'
   'y+0.8, -z+0.05, -x+1/4'
   '-y+0.2, z+0.15, x+0.95'
   '-y+1/4, -z+0.15, x+0.9'
   'y+0.95, z+0.05, -x+0.3'
   'y+0.85, x+0.95, -z+0.1'
   '-y+0.35, -x+1/4, z+0.1'
   '-y+0.3, -x+0.3, -z'
   'y+0.9, x+0.9, z'
   'y+0.95, -x+0.2, z+0.15'
   '-y+1/4, x+0.8, -z+0.05'
   '-y+0.2, x+0.85, z+0.05'
   'y+0.8, -x+0.35, -z+0.15'
   'x+0.85, z+0.15, -y+0.3'
   '-x+0.35, -z+0.05, y+0.9'
   '-x+0.2, z+0.05, y+0.85'
   'x+0.8, -z+0.15, -y+0.35'
   '-x+0.3, -z+0.1, -y+0.2'
   'x+0.9, z+0.1, y+0.8'
   'x+0.95, -z, y+0.95'
   '-x+1/4, z, -y+1/4'
   'z+0.05, y+0.95, -x+0.3'
   '-z+0.15, -y+1/4, x+0.9'
   'z+0.15, -y+0.2, x+0.95'
   '-z+0.05, y+0.8, -x+1/4'
   '-z, y+0.85, x+0.85'
   'z, -y+0.35, -x+0.35'
   '-z+0.1, -y+0.3, -x+0.2'
   'z+0.1, y+0.9, x+0.8'
   'x+0.8, y+0.8, z+0.2'
   '-x+0.2, -y+0.2, -z+0.8'
   '-x+0.35, -y+1/4, z+0.3'
   'x+0.85, y+0.95, -z+0.9'
   '-x+1/4, y+0.9, -z+0.95'
   'x+0.95, -y+0.3, z+1/4'
   'x+0.9, -y+0.35, -z+0.85'
   '-x+0.3, y+0.85, z+0.35'
   'z+0.2, x+0.8, y+0.8'
   '-z+0.8, -x+0.2, -y+0.2'
   'z+0.3, -x+0.35, -y+1/4'
   '-z+0.9, x+0.85, y+0.95'
   '-z+0.95, -x+1/4, y+0.9'
   'z+1/4, x+0.95, -y+0.3'
   '-z+0.85, x+0.9, -y+0.35'
   'z+0.35, -x+0.3, y+0.85'
   'y+0.8, z+0.2, x+0.8'
   '-y+0.2, -z+0.8, -x+0.2'
   '-y+1/4, z+0.3, -x+0.35'
   'y+0.95, -z+0.9, x+0.85'
   'y+0.9, -z+0.95, -x+1/4'
   '-y+0.3, z+1/4, x+0.95'
   '-y+0.35, -z+0.85, x+0.9'
   'y+0.85, z+0.35, -x+0.3'
   'y+0.95, x+0.85, -z+0.9'
   '-y+1/4, -x+0.35, z+0.3'
   '-y+0.2, -x+0.2, -z+0.8'
   'y+0.8, x+0.8, z+0.2'
   'y+0.85, -x+0.3, z+0.35'
   '-y+0.35, x+0.9, -z+0.85'
   '-y+0.3, x+0.95, z+1/4'
   'y+0.9, -x+1/4, -z+0.95'
   'x+0.95, z+1/4, -y+0.3'
   '-x+1/4, -z+0.95, y+0.9'
   '-x+0.3, z+0.35, y+0.85'
   'x+0.9, -z+0.85, -y+0.35'
   '-x+0.2, -z+0.8, -y+0.2'
   'x+0.8, z+0.2, y+0.8'
   'x+0.85, -z+0.9, y+0.95'
   '-x+0.35, z+0.3, -y+1/4'
   'z+0.35, y+0.85, -x+0.3'
   '-z+0.85, -y+0.35, x+0.9'
   'z+1/4, -y+0.3, x+0.95'
   '-z+0.95, y+0.9, -x+1/4'
   '-z+0.9, y+0.95, x+0.85'
   'z+0.3, -y+1/4, -x+0.35'
   '-z+0.8, -y+0.2, -x+0.2'
   'z+0.2, y+0.8, x+0.8'
   'x+0.8, y+0.9, z+0.3'
   '-x+0.2, -y+0.3, -z+0.9'
   '-x+0.35, -y+0.35, z+0.2'
   'x+0.85, y+0.85, -z+0.8'
   '-x+1/4, y+0.8, -z+0.85'
   'x+0.95, -y+0.2, z+0.35'
   'x+0.9, -y+1/4, -z+0.95'
   '-x+0.3, y+0.95, z+1/4'
   'z+0.2, x+0.9, y+0.9'
   '-z+0.8, -x+0.3, -y+0.3'
   'z+0.3, -x+1/4, -y+0.35'
   '-z+0.9, x+0.95, y+0.85'
   '-z+0.95, -x+0.35, y+0.8'
   'z+1/4, x+0.85, -y+0.2'
   '-z+0.85, x+0.8, -y+1/4'
   'z+0.35, -x+0.2, y+0.95'
   'y+0.8, z+0.3, x+0.9'
   '-y+0.2, -z+0.9, -x+0.3'
   '-y+1/4, z+0.2, -x+1/4'
   'y+0.95, -z+0.8, x+0.95'
   'y+0.9, -z+0.85, -x+0.35'
   '-y+0.3, z+0.35, x+0.85'
   '-y+0.35, -z+0.95, x+0.8'
   'y+0.85, z+1/4, -x+0.2'
   'y+0.95, x+0.95, -z+0.8'
   '-y+1/4, -x+1/4, z+0.2'
   '-y+0.2, -x+0.3, -z+0.9'
   'y+0.8, x+0.9, z+0.3'
   'y+0.85, -x+0.2, z+1/4'
   '-y+0.35, x+0.8, -z+0.95'
   '-y+0.3, x+0.85, z+0.35'
   'y+0.9, -x+0.35, -z+0.85'
   'x+0.95, z+0.35, -y+0.2'
   '-x+1/4, -z+0.85, y+0.8'
   '-x+0.3, z+1/4, y+0.95'
   'x+0.9, -z+0.95, -y+1/4'
   '-x+0.2, -z+0.9, -y+0.3'
   'x+0.8, z+0.3, y+0.9'
   'x+0.85, -z+0.8, y+0.85'
   '-x+0.35, z+0.2, -y+0.35'
   'z+0.35, y+0.95, -x+0.2'
   '-z+0.85, -y+1/4, x+0.8'
   'z+1/4, -y+0.2, x+0.85'
   '-z+0.95, y+0.8, -x+0.35'
   '-z+0.9, y+0.85, x+0.95'
   'z+0.3, -y+0.35, -x+1/4'
   '-z+0.8, -y+0.3, -x+0.3'
   'z+0.2, y+0.9, x+0.9'
   'x+0.9, y+0.8, z+0.3'
   '-x+0.3, -y+0.2, -z+0.9'
   '-x+1/4, -y+1/4, z+0.2'
   'x+0.95, y+0.95, -z+0.8'
   '-x+0.35, y+0.9, -z+0.85'
   'x+0.85, -y+0.3, z+0.35'
   'x+0.8, -y+0.35, -z+0.95'
   '-x+0.2, y+0.85, z+1/4'
   'z+0.3, x+0.8, y+0.9'
   '-z+0.9, -x+0.2, -y+0.3'
   'z+0.2, -x+0.35, -y+0.35'
   '-z+0.8, x+0.85, y+0.85'
   '-z+0.85, -x+1/4, y+0.8'
   'z+0.35, x+0.95, -y+0.2'
   '-z+0.95, x+0.9, -y+1/4'
   'z+1/4, -x+0.3, y+0.95'
   'y+0.9, z+0.2, x+0.9'
   '-y+0.3, -z+0.8, -x+0.3'
   '-y+0.35, z+0.3, -x+1/4'
   'y+0.85, -z+0.9, x+0.95'
   'y+0.8, -z+0.95, -x+0.35'
   '-y+0.2, z+1/4, x+0.85'
   '-y+1/4, -z+0.85, x+0.8'
   'y+0.95, z+0.35, -x+0.2'
   'y+0.85, x+0.85, -z+0.8'
   '-y+0.35, -x+0.35, z+0.2'
   '-y+0.3, -x+0.2, -z+0.9'
   'y+0.9, x+0.8, z+0.3'
   'y+0.95, -x+0.3, z+1/4'
   '-y+1/4, x+0.9, -z+0.95'
   '-y+0.2, x+0.95, z+0.35'
   'y+0.8, -x+1/4, -z+0.85'
   'x+0.85, z+1/4, -y+0.2'
   '-x+0.35, -z+0.95, y+0.8'
   '-x+0.2, z+0.35, y+0.95'
   'x+0.8, -z+0.85, -y+1/4'
   '-x+0.3, -z+0.8, -y+0.3'
   'x+0.9, z+0.2, y+0.9'
   'x+0.95, -z+0.9, y+0.85'
   '-x+1/4, z+0.3, -y+0.35'
   'z+1/4, y+0.85, -x+0.2'
   '-z+0.95, -y+0.35, x+0.8'
   'z+0.35, -y+0.3, x+0.85'
   '-z+0.85, y+0.9, -x+0.35'
   '-z+0.8, y+0.95, x+0.95'
   'z+0.2, -y+1/4, -x+1/4'
   '-z+0.9, -y+0.2, -x+0.3'
   'z+0.3, y+0.8, x+0.9'
   'x+0.9, y+0.9, z+0.2'
   '-x+0.3, -y+0.3, -z+0.8'
   '-x+1/4, -y+0.35, z+0.3'
   'x+0.95, y+0.85, -z+0.9'
   '-x+0.35, y+0.8, -z+0.95'
   'x+0.85, -y+0.2, z+1/4'
   'x+0.8, -y+1/4, -z+0.85'
   '-x+0.2, y+0.95, z+0.35'
   'z+0.3, x+0.9, y+0.8'
   '-z+0.9, -x+0.3, -y+0.2'
   'z+0.2, -x+1/4, -y+1/4'
   '-z+0.8, x+0.95, y+0.95'
   '-z+0.85, -x+0.35, y+0.9'
   'z+0.35, x+0.85, -y+0.3'
   '-z+0.95, x+0.8, -y+0.35'
   'z+1/4, -x+0.2, y+0.85'
   'y+0.9, z+0.3, x+0.8'
   '-y+0.3, -z+0.9, -x+0.2'
   '-y+0.35, z+0.2, -x+0.35'
   'y+0.85, -z+0.8, x+0.85'
   'y+0.8, -z+0.85, -x+1/4'
   '-y+0.2, z+0.35, x+0.95'
   '-y+1/4, -z+0.95, x+0.9'
   'y+0.95, z+1/4, -x+0.3'
   'y+0.85, x+0.95, -z+0.9'
   '-y+0.35, -x+1/4, z+0.3'
   '-y+0.3, -x+0.3, -z+0.8'
   'y+0.9, x+0.9, z+0.2'
   'y+0.95, -x+0.2, z+0.35'
   '-y+1/4, x+0.8, -z+0.85'
   '-y+0.2, x+0.85, z+1/4'
   'y+0.8, -x+0.35, -z+0.95'
   'x+0.85, z+0.35, -y+0.3'
   '-x+0.35, -z+0.85, y+0.9'
   '-x+0.2, z+1/4, y+0.85'
   'x+0.8, -z+0.95, -y+0.35'
   '-x+0.3, -z+0.9, -y+0.2'
   'x+0.9, z+0.3, y+0.8'
   'x+0.95, -z+0.8, y+0.95'
   '-x+1/4, z+0.2, -y+1/4'
   'z+1/4, y+0.95, -x+0.3'
   '-z+0.95, -y+1/4, x+0.9'
   'z+0.35, -y+0.2, x+0.95'
   '-z+0.85, y+0.8, -x+1/4'
   '-z+0.8, y+0.85, x+0.85'
   'z+0.2, -y+0.35, -x+0.35'
   '-z+0.9, -y+0.3, -x+0.2'
   'z+0.3, y+0.9, x+0.8'
   'x+0.8, y+0.8, z+0.4'
   '-x+0.2, -y+0.2, -z+0.6'
   '-x+0.35, -y+1/4, z+1/2'
   'x+0.85, y+0.95, -z+0.7'
   '-x+1/4, y+0.9, -z+3/4'
   'x+0.95, -y+0.3, z+0.45'
   'x+0.9, -y+0.35, -z+0.65'
   '-x+0.3, y+0.85, z+0.55'
   'z+0.4, x+0.8, y+0.8'
   '-z+0.6, -x+0.2, -y+0.2'
   'z+1/2, -x+0.35, -y+1/4'
   '-z+0.7, x+0.85, y+0.95'
   '-z+3/4, -x+1/4, y+0.9'
   'z+0.45, x+0.95, -y+0.3'
   '-z+0.65, x+0.9, -y+0.35'
   'z+0.55, -x+0.3, y+0.85'
   'y+0.8, z+0.4, x+0.8'
   '-y+0.2, -z+0.6, -x+0.2'
   '-y+1/4, z+1/2, -x+0.35'
   'y+0.95, -z+0.7, x+0.85'
   'y+0.9, -z+3/4, -x+1/4'
   '-y+0.3, z+0.45, x+0.95'
   '-y+0.35, -z+0.65, x+0.9'
   'y+0.85, z+0.55, -x+0.3'
   'y+0.95, x+0.85, -z+0.7'
   '-y+1/4, -x+0.35, z+1/2'
   '-y+0.2, -x+0.2, -z+0.6'
   'y+0.8, x+0.8, z+0.4'
   'y+0.85, -x+0.3, z+0.55'
   '-y+0.35, x+0.9, -z+0.65'
   '-y+0.3, x+0.95, z+0.45'
   'y+0.9, -x+1/4, -z+3/4'
   'x+0.95, z+0.45, -y+0.3'
   '-x+1/4, -z+3/4, y+0.9'
   '-x+0.3, z+0.55, y+0.85'
   'x+0.9, -z+0.65, -y+0.35'
   '-x+0.2, -z+0.6, -y+0.2'
   'x+0.8, z+0.4, y+0.8'
   'x+0.85, -z+0.7, y+0.95'
   '-x+0.35, z+1/2, -y+1/4'
   'z+0.55, y+0.85, -x+0.3'
   '-z+0.65, -y+0.35, x+0.9'
   'z+0.45, -y+0.3, x+0.95'
   '-z+3/4, y+0.9, -x+1/4'
   '-z+0.7, y+0.95, x+0.85'
   'z+1/2, -y+1/4, -x+0.35'
   '-z+0.6, -y+0.2, -x+0.2'
   'z+0.4, y+0.8, x+0.8'
   'x+0.8, y+0.9, z+1/2'
   '-x+0.2, -y+0.3, -z+0.7'
   '-x+0.35, -y+0.35, z+0.4'
   'x+0.85, y+0.85, -z+0.6'
   '-x+1/4, y+0.8, -z+0.65'
   'x+0.95, -y+0.2, z+0.55'
   'x+0.9, -y+1/4, -z+3/4'
   '-x+0.3, y+0.95, z+0.45'
   'z+0.4, x+0.9, y+0.9'
   '-z+0.6, -x+0.3, -y+0.3'
   'z+1/2, -x+1/4, -y+0.35'
   '-z+0.7, x+0.95, y+0.85'
   '-z+3/4, -x+0.35, y+0.8'
   'z+0.45, x+0.85, -y+0.2'
   '-z+0.65, x+0.8, -y+1/4'
   'z+0.55, -x+0.2, y+0.95'
   'y+0.8, z+1/2, x+0.9'
   '-y+0.2, -z+0.7, -x+0.3'
   '-y+1/4, z+0.4, -x+1/4'
   'y+0.95, -z+0.6, x+0.95'
   'y+0.9, -z+0.65, -x+0.35'
   '-y+0.3, z+0.55, x+0.85'
   '-y+0.35, -z+3/4, x+0.8'
   'y+0.85, z+0.45, -x+0.2'
   'y+0.95, x+0.95, -z+0.6'
   '-y+1/4, -x+1/4, z+0.4'
   '-y+0.2, -x+0.3, -z+0.7'
   'y+0.8, x+0.9, z+1/2'
   'y+0.85, -x+0.2, z+0.45'
   '-y+0.35, x+0.8, -z+3/4'
   '-y+0.3, x+0.85, z+0.55'
   'y+0.9, -x+0.35, -z+0.65'
   'x+0.95, z+0.55, -y+0.2'
   '-x+1/4, -z+0.65, y+0.8'
   '-x+0.3, z+0.45, y+0.95'
   'x+0.9, -z+3/4, -y+1/4'
   '-x+0.2, -z+0.7, -y+0.3'
   'x+0.8, z+1/2, y+0.9'
   'x+0.85, -z+0.6, y+0.85'
   '-x+0.35, z+0.4, -y+0.35'
   'z+0.55, y+0.95, -x+0.2'
   '-z+0.65, -y+1/4, x+0.8'
   'z+0.45, -y+0.2, x+0.85'
   '-z+3/4, y+0.8, -x+0.35'
   '-z+0.7, y+0.85, x+0.95'
   'z+1/2, -y+0.35, -x+1/4'
   '-z+0.6, -y+0.3, -x+0.3'
   'z+0.4, y+0.9, x+0.9'
   'x+0.9, y+0.8, z+1/2'
   '-x+0.3, -y+0.2, -z+0.7'
   '-x+1/4, -y+1/4, z+0.4'
   'x+0.95, y+0.95, -z+0.6'
   '-x+0.35, y+0.9, -z+0.65'
   'x+0.85, -y+0.3, z+0.55'
   'x+0.8, -y+0.35, -z+3/4'
   '-x+0.2, y+0.85, z+0.45'
   'z+1/2, x+0.8, y+0.9'
   '-z+0.7, -x+0.2, -y+0.3'
   'z+0.4, -x+0.35, -y+0.35'
   '-z+0.6, x+0.85, y+0.85'
   '-z+0.65, -x+1/4, y+0.8'
   'z+0.55, x+0.95, -y+0.2'
   '-z+3/4, x+0.9, -y+1/4'
   'z+0.45, -x+0.3, y+0.95'
   'y+0.9, z+0.4, x+0.9'
   '-y+0.3, -z+0.6, -x+0.3'
   '-y+0.35, z+1/2, -x+1/4'
   'y+0.85, -z+0.7, x+0.95'
   'y+0.8, -z+3/4, -x+0.35'
   '-y+0.2, z+0.45, x+0.85'
   '-y+1/4, -z+0.65, x+0.8'
   'y+0.95, z+0.55, -x+0.2'
   'y+0.85, x+0.85, -z+0.6'
   '-y+0.35, -x+0.35, z+0.4'
   '-y+0.3, -x+0.2, -z+0.7'
   'y+0.9, x+0.8, z+1/2'
   'y+0.95, -x+0.3, z+0.45'
   '-y+1/4, x+0.9, -z+3/4'
   '-y+0.2, x+0.95, z+0.55'
   'y+0.8, -x+1/4, -z+0.65'
   'x+0.85, z+0.45, -y+0.2'
   '-x+0.35, -z+3/4, y+0.8'
   '-x+0.2, z+0.55, y+0.95'
   'x+0.8, -z+0.65, -y+1/4'
   '-x+0.3, -z+0.6, -y+0.3'
   'x+0.9, z+0.4, y+0.9'
   'x+0.95, -z+0.7, y+0.85'
   '-x+1/4, z+1/2, -y+0.35'
   'z+0.45, y+0.85, -x+0.2'
   '-z+3/4, -y+0.35, x+0.8'
   'z+0.55, -y+0.3, x+0.85'
   '-z+0.65, y+0.9, -x+0.35'
   '-z+0.6, y+0.95, x+0.95'
   'z+0.4, -y+1/4, -x+1/4'
   '-z+0.7, -y+0.2, -x+0.3'
   'z+1/2, y+0.8, x+0.9'
   'x+0.9, y+0.9, z+0.4'
   '-x+0.3, -y+0.3, -z+0.6'
   '-x+1/4, -y+0.35, z+1/2'
   'x+0.95, y+0.85, -z+0.7'
   '-x+0.35, y+0.8, -z+3/4'
   'x+0.85, -y+0.2, z+0.45'
   'x+0.8, -y+1/4, -z+0.65'
   '-x+0.2, y+0.95, z+0.55'
   'z+1/2, x+0.9, y+0.8'
   '-z+0.7, -x+0.3, -y+0.2'
   'z+0.4, -x+1/4, -y+1/4'
   '-z+0.6, x+0.95, y+0.95'
   '-z+0.65, -x+0.35, y+0.9'
   'z+0.55, x+0.85, -y+0.3'
   '-z+3/4, x+0.8, -y+0.35'
   'z+0.45, -x+0.2, y+0.85'
   'y+0.9, z+1/2, x+0.8'
   '-y+0.3, -z+0.7, -x+0.2'
   '-y+0.35, z+0.4, -x+0.35'
   'y+0.85, -z+0.6, x+0.85'
   'y+0.8, -z+0.65, -x+1/4'
   '-y+0.2, z+0.55, x+0.95'
   '-y+1/4, -z+3/4, x+0.9'
   'y+0.95, z+0.45, -x+0.3'
   'y+0.85, x+0.95, -z+0.7'
   '-y+0.35, -x+1/4, z+1/2'
   '-y+0.3, -x+0.3, -z+0.6'
   'y+0.9, x+0.9, z+0.4'
   'y+0.95, -x+0.2, z+0.55'
   '-y+1/4, x+0.8, -z+0.65'
   '-y+0.2, x+0.85, z+0.45'
   'y+0.8, -x+0.35, -z+3/4'
   'x+0.85, z+0.55, -y+0.3'
   '-x+0.35, -z+0.65, y+0.9'
   '-x+0.2, z+0.45, y+0.85'
   'x+0.8, -z+3/4, -y+0.35'
   '-x+0.3, -z+0.7, -y+0.2'
   'x+0.9, z+1/2, y+0.8'
   'x+0.95, -z+0.6, y+0.95'
   '-x+1/4, z+0.4, -y+1/4'
   'z+0.45, y+0.95, -x+0.3'
   '-z+3/4, -y+1/4, x+0.9'
   'z+0.55, -y+0.2, x+0.95'
   '-z+0.65, y+0.8, -x+1/4'
   '-z+0.6, y+0.85, x+0.85'
   'z+0.4, -y+0.35, -x+0.35'
   '-z+0.7, -y+0.3, -x+0.2'
   'z+1/2, y+0.9, x+0.8'
   'x+0.8, y+0.8, z+0.6'
   '-x+0.2, -y+0.2, -z+0.4'
   '-x+0.35, -y+1/4, z+0.7'
   'x+0.85, y+0.95, -z+1/2'
   '-x+1/4, y+0.9, -z+0.55'
   'x+0.95, -y+0.3, z+0.65'
   'x+0.9, -y+0.35, -z+0.45'
   '-x+0.3, y+0.85, z+3/4'
   'z+0.6, x+0.8, y+0.8'
   '-z+0.4, -x+0.2, -y+0.2'
   'z+0.7, -x+0.35, -y+1/4'
   '-z+1/2, x+0.85, y+0.95'
   '-z+0.55, -x+1/4, y+0.9'
   'z+0.65, x+0.95, -y+0.3'
   '-z+0.45, x+0.9, -y+0.35'
   'z+3/4, -x+0.3, y+0.85'
   'y+0.8, z+0.6, x+0.8'
   '-y+0.2, -z+0.4, -x+0.2'
   '-y+1/4, z+0.7, -x+0.35'
   'y+0.95, -z+1/2, x+0.85'
   'y+0.9, -z+0.55, -x+1/4'
   '-y+0.3, z+0.65, x+0.95'
   '-y+0.35, -z+0.45, x+0.9'
   'y+0.85, z+3/4, -x+0.3'
   'y+0.95, x+0.85, -z+1/2'
   '-y+1/4, -x+0.35, z+0.7'
   '-y+0.2, -x+0.2, -z+0.4'
   'y+0.8, x+0.8, z+0.6'
   'y+0.85, -x+0.3, z+3/4'
   '-y+0.35, x+0.9, -z+0.45'
   '-y+0.3, x+0.95, z+0.65'
   'y+0.9, -x+1/4, -z+0.55'
   'x+0.95, z+0.65, -y+0.3'
   '-x+1/4, -z+0.55, y+0.9'
   '-x+0.3, z+3/4, y+0.85'
   'x+0.9, -z+0.45, -y+0.35'
   '-x+0.2, -z+0.4, -y+0.2'
   'x+0.8, z+0.6, y+0.8'
   'x+0.85, -z+1/2, y+0.95'
   '-x+0.35, z+0.7, -y+1/4'
   'z+3/4, y+0.85, -x+0.3'
   '-z+0.45, -y+0.35, x+0.9'
   'z+0.65, -y+0.3, x+0.95'
   '-z+0.55, y+0.9, -x+1/4'
   '-z+1/2, y+0.95, x+0.85'
   'z+0.7, -y+1/4, -x+0.35'
   '-z+0.4, -y+0.2, -x+0.2'
   'z+0.6, y+0.8, x+0.8'
   'x+0.8, y+0.9, z+0.7'
   '-x+0.2, -y+0.3, -z+1/2'
   '-x+0.35, -y+0.35, z+0.6'
   'x+0.85, y+0.85, -z+0.4'
   '-x+1/4, y+0.8, -z+0.45'
   'x+0.95, -y+0.2, z+3/4'
   'x+0.9, -y+1/4, -z+0.55'
   '-x+0.3, y+0.95, z+0.65'
   'z+0.6, x+0.9, y+0.9'
   '-z+0.4, -x+0.3, -y+0.3'
   'z+0.7, -x+1/4, -y+0.35'
   '-z+1/2, x+0.95, y+0.85'
   '-z+0.55, -x+0.35, y+0.8'
   'z+0.65, x+0.85, -y+0.2'
   '-z+0.45, x+0.8, -y+1/4'
   'z+3/4, -x+0.2, y+0.95'
   'y+0.8, z+0.7, x+0.9'
   '-y+0.2, -z+1/2, -x+0.3'
   '-y+1/4, z+0.6, -x+1/4'
   'y+0.95, -z+0.4, x+0.95'
   'y+0.9, -z+0.45, -x+0.35'
   '-y+0.3, z+3/4, x+0.85'
   '-y+0.35, -z+0.55, x+0.8'
   'y+0.85, z+0.65, -x+0.2'
   'y+0.95, x+0.95, -z+0.4'
   '-y+1/4, -x+1/4, z+0.6'
   '-y+0.2, -x+0.3, -z+1/2'
   'y+0.8, x+0.9, z+0.7'
   'y+0.85, -x+0.2, z+0.65'
   '-y+0.35, x+0.8, -z+0.55'
   '-y+0.3, x+0.85, z+3/4'
   'y+0.9, -x+0.35, -z+0.45'
   'x+0.95, z+3/4, -y+0.2'
   '-x+1/4, -z+0.45, y+0.8'
   '-x+0.3, z+0.65, y+0.95'
   'x+0.9, -z+0.55, -y+1/4'
   '-x+0.2, -z+1/2, -y+0.3'
   'x+0.8, z+0.7, y+0.9'
   'x+0.85, -z+0.4, y+0.85'
   '-x+0.35, z+0.6, -y+0.35'
   'z+3/4, y+0.95, -x+0.2'
   '-z+0.45, -y+1/4, x+0.8'
   'z+0.65, -y+0.2, x+0.85'
   '-z+0.55, y+0.8, -x+0.35'
   '-z+1/2, y+0.85, x+0.95'
   'z+0.7, -y+0.35, -x+1/4'
   '-z+0.4, -y+0.3, -x+0.3'
   'z+0.6, y+0.9, x+0.9'
   'x+0.9, y+0.8, z+0.7'
   '-x+0.3, -y+0.2, -z+1/2'
   '-x+1/4, -y+1/4, z+0.6'
   'x+0.95, y+0.95, -z+0.4'
   '-x+0.35, y+0.9, -z+0.45'
   'x+0.85, -y+0.3, z+3/4'
   'x+0.8, -y+0.35, -z+0.55'
   '-x+0.2, y+0.85, z+0.65'
   'z+0.7, x+0.8, y+0.9'
   '-z+1/2, -x+0.2, -y+0.3'
   'z+0.6, -x+0.35, -y+0.35'
   '-z+0.4, x+0.85, y+0.85'
   '-z+0.45, -x+1/4, y+0.8'
   'z+3/4, x+0.95, -y+0.2'
   '-z+0.55, x+0.9, -y+1/4'
   'z+0.65, -x+0.3, y+0.95'
   'y+0.9, z+0.6, x+0.9'
   '-y+0.3, -z+0.4, -x+0.3'
   '-y+0.35, z+0.7, -x+1/4'
   'y+0.85, -z+1/2, x+0.95'
   'y+0.8, -z+0.55, -x+0.35'
   '-y+0.2, z+0.65, x+0.85'
   '-y+1/4, -z+0.45, x+0.8'
   'y+0.95, z+3/4, -x+0.2'
   'y+0.85, x+0.85, -z+0.4'
   '-y+0.35, -x+0.35, z+0.6'
   '-y+0.3, -x+0.2, -z+1/2'
   'y+0.9, x+0.8, z+0.7'
   'y+0.95, -x+0.3, z+0.65'
   '-y+1/4, x+0.9, -z+0.55'
   '-y+0.2, x+0.95, z+3/4'
   'y+0.8, -x+1/4, -z+0.45'
   'x+0.85, z+0.65, -y+0.2'
   '-x+0.35, -z+0.55, y+0.8'
   '-x+0.2, z+3/4, y+0.95'
   'x+0.8, -z+0.45, -y+1/4'
   '-x+0.3, -z+0.4, -y+0.3'
   'x+0.9, z+0.6, y+0.9'
   'x+0.95, -z+1/2, y+0.85'
   '-x+1/4, z+0.7, -y+0.35'
   'z+0.65, y+0.85, -x+0.2'
   '-z+0.55, -y+0.35, x+0.8'
   'z+3/4, -y+0.3, x+0.85'
   '-z+0.45, y+0.9, -x+0.35'
   '-z+0.4, y+0.95, x+0.95'
   'z+0.6, -y+1/4, -x+1/4'
   '-z+1/2, -y+0.2, -x+0.3'
   'z+0.7, y+0.8, x+0.9'
   'x+0.9, y+0.9, z+0.6'
   '-x+0.3, -y+0.3, -z+0.4'
   '-x+1/4, -y+0.35, z+0.7'
   'x+0.95, y+0.85, -z+1/2'
   '-x+0.35, y+0.8, -z+0.55'
   'x+0.85, -y+0.2, z+0.65'
   'x+0.8, -y+1/4, -z+0.45'
   '-x+0.2, y+0.95, z+3/4'
   'z+0.7, x+0.9, y+0.8'
   '-z+1/2, -x+0.3, -y+0.2'
   'z+0.6, -x+1/4, -y+1/4'
   '-z+0.4, x+0.95, y+0.95'
   '-z+0.45, -x+0.35, y+0.9'
   'z+3/4, x+0.85, -y+0.3'
   '-z+0.55, x+0.8, -y+0.35'
   'z+0.65, -x+0.2, y+0.85'
   'y+0.9, z+0.7, x+0.8'
   '-y+0.3, -z+1/2, -x+0.2'
   '-y+0.35, z+0.6, -x+0.35'
   'y+0.85, -z+0.4, x+0.85'
   'y+0.8, -z+0.45, -x+1/4'
   '-y+0.2, z+3/4, x+0.95'
   '-y+1/4, -z+0.55, x+0.9'
   'y+0.95, z+0.65, -x+0.3'
   'y+0.85, x+0.95, -z+1/2'
   '-y+0.35, -x+1/4, z+0.7'
   '-y+0.3, -x+0.3, -z+0.4'
   'y+0.9, x+0.9, z+0.6'
   'y+0.95, -x+0.2, z+3/4'
   '-y+1/4, x+0.8, -z+0.45'
   '-y+0.2, x+0.85, z+0.65'
   'y+0.8, -x+0.35, -z+0.55'
   'x+0.85, z+3/4, -y+0.3'
   '-x+0.35, -z+0.45, y+0.9'
   '-x+0.2, z+0.65, y+0.85'
   'x+0.8, -z+0.55, -y+0.35'
   '-x+0.3, -z+1/2, -y+0.2'
   'x+0.9, z+0.7, y+0.8'
   'x+0.95, -z+0.4, y+0.95'
   '-x+1/4, z+0.6, -y+1/4'
   'z+0.65, y+0.95, -x+0.3'
   '-z+0.55, -y+1/4, x+0.9'
   'z+3/4, -y+0.2, x+0.95'
   '-z+0.45, y+0.8, -x+1/4'
   '-z+0.4, y+0.85, x+0.85'
   'z+0.6, -y+0.35, -x+0.35'
   '-z+1/2, -y+0.3, -x+0.2'
   'z+0.7, y+0.9, x+0.8'
   'x+0.8, y+0.8, z+0.8'
   '-x+0.2, -y+0.2, -z+0.2'
   '-x+0.35, -y+1/4, z+0.9'
   'x+0.85, y+0.95, -z+0.3'
   '-x+1/4, y+0.9, -z+0.35'
   'x+0.95, -y+0.3, z+0.85'
   'x+0.9, -y+0.35, -z+1/4'
   '-x+0.3, y+0.85, z+0.95'
   'z+0.8, x+0.8, y+0.8'
   '-z+0.2, -x+0.2, -y+0.2'
   'z+0.9, -x+0.35, -y+1/4'
   '-z+0.3, x+0.85, y+0.95'
   '-z+0.35, -x+1/4, y+0.9'
   'z+0.85, x+0.95, -y+0.3'
   '-z+1/4, x+0.9, -y+0.35'
   'z+0.95, -x+0.3, y+0.85'
   'y+0.8, z+0.8, x+0.8'
   '-y+0.2, -z+0.2, -x+0.2'
   '-y+1/4, z+0.9, -x+0.35'
   'y+0.95, -z+0.3, x+0.85'
   'y+0.9, -z+0.35, -x+1/4'
   '-y+0.3, z+0.85, x+0.95'
   '-y+0.35, -z+1/4, x+0.9'
   'y+0.85, z+0.95, -x+0.3'
   'y+0.95, x+0.85, -z+0.3'
   '-y+1/4, -x+0.35, z+0.9'
   '-y+0.2, -x+0.2, -z+0.2'
   'y+0.8, x+0.8, z+0.8'
   'y+0.85, -x+0.3, z+0.95'
   '-y+0.35, x+0.9, -z+1/4'
   '-y+0.3, x+0.95, z+0.85'
   'y+0.9, -x+1/4, -z+0.35'
   'x+0.95, z+0.85, -y+0.3'
   '-x+1/4, -z+0.35, y+0.9'
   '-x+0.3, z+0.95, y+0.85'
   'x+0.9, -z+1/4, -y+0.35'
   '-x+0.2, -z+0.2, -y+0.2'
   'x+0.8, z+0.8, y+0.8'
   'x+0.85, -z+0.3, y+0.95'
   '-x+0.35, z+0.9, -y+1/4'
   'z+0.95, y+0.85, -x+0.3'
   '-z+1/4, -y+0.35, x+0.9'
   'z+0.85, -y+0.3, x+0.95'
   '-z+0.35, y+0.9, -x+1/4'
   '-z+0.3, y+0.95, x+0.85'
   'z+0.9, -y+1/4, -x+0.35'
   '-z+0.2, -y+0.2, -x+0.2'
   'z+0.8, y+0.8, x+0.8'
   'x+0.8, y+0.9, z+0.9'
   '-x+0.2, -y+0.3, -z+0.3'
   '-x+0.35, -y+0.35, z+0.8'
   'x+0.85, y+0.85, -z+0.2'
   '-x+1/4, y+0.8, -z+1/4'
   'x+0.95, -y+0.2, z+0.95'
   'x+0.9, -y+1/4, -z+0.35'
   '-x+0.3, y+0.95, z+0.85'
   'z+0.8, x+0.9, y+0.9'
   '-z+0.2, -x+0.3, -y+0.3'
   'z+0.9, -x+1/4, -y+0.35'
   '-z+0.3, x+0.95, y+0.85'
   '-z+0.35, -x+0.35, y+0.8'
   'z+0.85, x+0.85, -y+0.2'
   '-z+1/4, x+0.8, -y+1/4'
   'z+0.95, -x+0.2, y+0.95'
   'y+0.8, z+0.9, x+0.9'
   '-y+0.2, -z+0.3, -x+0.3'
   '-y+1/4, z+0.8, -x+1/4'
   'y+0.95, -z+0.2, x+0.95'
   'y+0.9, -z+1/4, -x+0.35'
   '-y+0.3, z+0.95, x+0.85'
   '-y+0.35, -z+0.35, x+0.8'
   'y+0.85, z+0.85, -x+0.2'
   'y+0.95, x+0.95, -z+0.2'
   '-y+1/4, -x+1/4, z+0.8'
   '-y+0.2, -x+0.3, -z+0.3'
   'y+0.8, x+0.9, z+0.9'
   'y+0.85, -x+0.2, z+0.85'
   '-y+0.35, x+0.8, -z+0.35'
   '-y+0.3, x+0.85, z+0.95'
   'y+0.9, -x+0.35, -z+1/4'
   'x+0.95, z+0.95, -y+0.2'
   '-x+1/4, -z+1/4, y+0.8'
   '-x+0.3, z+0.85, y+0.95'
   'x+0.9, -z+0.35, -y+1/4'
   '-x+0.2, -z+0.3, -y+0.3'
   'x+0.8, z+0.9, y+0.9'
   'x+0.85, -z+0.2, y+0.85'
   '-x+0.35, z+0.8, -y+0.35'
   'z+0.95, y+0.95, -x+0.2'
   '-z+1/4, -y+1/4, x+0.8'
   'z+0.85, -y+0.2, x+0.85'
   '-z+0.35, y+0.8, -x+0.35'
   '-z+0.3, y+0.85, x+0.95'
   'z+0.9, -y+0.35, -x+1/4'
   '-z+0.2, -y+0.3, -x+0.3'
   'z+0.8, y+0.9, x+0.9'
   'x+0.9, y+0.8, z+0.9'
   '-x+0.3, -y+0.2, -z+0.3'
   '-x+1/4, -y+1/4, z+0.8'
   'x+0.95, y+0.95, -z+0.2'
   '-x+0.35, y+0.9, -z+1/4'
   'x+0.85, -y+0.3, z+0.95'
   'x+0.8, -y+0.35, -z+0.35'
   '-x+0.2, y+0.85, z+0.85'
   'z+0.9, x+0.8, y+0.9'
   '-z+0.3, -x+0.2, -y+0.3'
   'z+0.8, -x+0.35, -y+0.35'
   '-z+0.2, x+0.85, y+0.85'
   '-z+1/4, -x+1/4, y+0.8'
   'z+0.95, x+0.95, -y+0.2'
   '-z+0.35, x+0.9, -y+1/4'
   'z+0.85, -x+0.3, y+0.95'
   'y+0.9, z+0.8, x+0.9'
   '-y+0.3, -z+0.2, -x+0.3'
   '-y+0.35, z+0.9, -x+1/4'
   'y+0.85, -z+0.3, x+0.95'
   'y+0.8, -z+0.35, -x+0.35'
   '-y+0.2, z+0.85, x+0.85'
   '-y+1/4, -z+1/4, x+0.8'
   'y+0.95, z+0.95, -x+0.2'
   'y+0.85, x+0.85, -z+0.2'
   '-y+0.35, -x+0.35, z+0.8'
   '-y+0.3, -x+0.2, -z+0.3'
   'y+0.9, x+0.8, z+0.9'
   'y+0.95, -x+0.3, z+0.85'
   '-y+1/4, x+0.9, -z+0.35'
   '-y+0.2, x+0.95, z+0.95'
   'y+0.8, -x+1/4, -z+1/4'
   'x+0.85, z+0.85, -y+0.2'
   '-x+0.35, -z+0.35, y+0.8'
   '-x+0.2, z+0.95, y+0.95'
   'x+0.8, -z+1/4, -y+1/4'
   '-x+0.3, -z+0.2, -y+0.3'
   'x+0.9, z+0.8, y+0.9'
   'x+0.95, -z+0.3, y+0.85'
   '-x+1/4, z+0.9, -y+0.35'
   'z+0.85, y+0.85, -x+0.2'
   '-z+0.35, -y+0.35, x+0.8'
   'z+0.95, -y+0.3, x+0.85'
   '-z+1/4, y+0.9, -x+0.35'
   '-z+0.2, y+0.95, x+0.95'
   'z+0.8, -y+1/4, -x+1/4'
   '-z+0.3, -y+0.2, -x+0.3'
   'z+0.9, y+0.8, x+0.9'
   'x+0.9, y+0.9, z+0.8'
   '-x+0.3, -y+0.3, -z+0.2'
   '-x+1/4, -y+0.35, z+0.9'
   'x+0.95, y+0.85, -z+0.3'
   '-x+0.35, y+0.8, -z+0.35'
   'x+0.85, -y+0.2, z+0.85'
   'x+0.8, -y+1/4, -z+1/4'
   '-x+0.2, y+0.95, z+0.95'
   'z+0.9, x+0.9, y+0.8'
   '-z+0.3, -x+0.3, -y+0.2'
   'z+0.8, -x+1/4, -y+1/4'
   '-z+0.2, x+0.95, y+0.95'
   '-z+1/4, -x+0.35, y+0.9'
   'z+0.95, x+0.85, -y+0.3'
   '-z+0.35, x+0.8, -y+0.35'
   'z+0.85, -x+0.2, y+0.85'
   'y+0.9, z+0.9, x+0.8'
   '-y+0.3, -z+0.3, -x+0.2'
   '-y+0.35, z+0.8, -x+0.35'
   'y+0.85, -z+0.2, x+0.85'
   'y+0.8, -z+1/4, -x+1/4'
   '-y+0.2, z+0.95, x+0.95'
   '-y+1/4, -z+0.35, x+0.9'
   'y+0.95, z+0.85, -x+0.3'
   'y+0.85, x+0.95, -z+0.3'
   '-y+0.35, -x+1/4, z+0.9'
   '-y+0.3, -x+0.3, -z+0.2'
   'y+0.9, x+0.9, z+0.8'
   'y+0.95, -x+0.2, z+0.95'
   '-y+1/4, x+0.8, -z+1/4'
   '-y+0.2, x+0.85, z+0.85'
   'y+0.8, -x+0.35, -z+0.35'
   'x+0.85, z+0.95, -y+0.3'
   '-x+0.35, -z+1/4, y+0.9'
   '-x+0.2, z+0.85, y+0.85'
   'x+0.8, -z+0.35, -y+0.35'
   '-x+0.3, -z+0.3, -y+0.2'
   'x+0.9, z+0.9, y+0.8'
   'x+0.95, -z+0.2, y+0.95'
   '-x+1/4, z+0.8, -y+1/4'
   'z+0.85, y+0.95, -x+0.3'
   '-z+0.35, -y+1/4, x+0.9'
   'z+0.95, -y+0.2, x+0.95'
   '-z+1/4, y+0.8, -x+1/4'
   '-z+0.2, y+0.85, x+0.85'
   'z+0.8, -y+0.35, -x+0.35'
   '-z+0.3, -y+0.3, -x+0.2'
   'z+0.9, y+0.9, x+0.8'

loop_
   _atom_site_label
   _atom_site_occupancy
   _atom_site_fract_x
   _atom_site_fract_y
   _atom_site_fract_z
   _atom_site_adp_type
   _atom_site_B_iso_or_equiv
   _atom_site_type_symbol
   Li1        1.0     0.025000     0.025000     0.025000    Biso  0.500000 Li
   Mn1        1.0     0.100000     0.100000     0.100000    Biso  0.300000 Mn
   O1         1.0     0.0522(4)    0.0522(4)    0.0522(4)   Biso  0.400000 O
