
#======================================================================
# CRYSTAL DATA
#----------------------------------------------------------------------
data_VESTA_phase_1

_chemical_name_common                  'Li Mn2 O4'
_cell_length_a                         24.735(3)
_cell_length_b                         24.735(3)
_cell_length_c                         24.735(3)
_cell_angle_alpha                      90.000000
_cell_angle_beta                       90.000000
_cell_angle_gamma                      90.000000
_cell_volume                           15133.374386
_space_group_name_H-M_alt              'F d -3 m'
_space_group_IT_number                 227

loop_
_space_group_symop_operation_xyz
   'x, y, z'
   '-x, -y, -z'
   '-x+1/4, -y+1/12, z+1/6'
   'x+1/12, y+1/4, -z+1/6'
   '-x+1/12, y+1/6, -z+1/4'
   'x+1/4, -y+1/6, z+1/12'
   'x+1/6, -y+1/4, -z+1/12'
   '-x+1/6, y+1/12, z+1/4'
   'z, x, y'
   '-z, -x, -y'
   'z+1/6, -x+1/4, -y+1/12'
   '-z+1/6, x+1/12, y+1/4'
   '-z+1/4, -x+1/12, y+1/6'
   'z+1/12, x+1/4, -y+1/6'
   '-z+1/12, x+1/6, -y+1/4'
   'z+1/4, -x+1/6, y+1/12'
   'y, z, x'
   '-y, -z, -x'
   '-y+1/12, z+1/6, -x+1/4'
   'y+1/4, -z+1/6, x+1/12'
   'y+1/6, -z+1/4, -x+1/12'
   '-y+1/6, z+1/12, x+1/4'
   '-y+1/4, -z+1/12, x+1/6'
   'y+1/12, z+1/4, -x+1/6'
   'y+1/4, x+1/12, -z+1/6'
   '-y+1/12, -x+1/4, z+1/6'
   '-y, -x, -z'
   'y, x, z'
   'y+1/12, -x+1/6, z+1/4'
   '-y+1/4, x+1/6, -z+1/12'
   '-y+1/6, x+1/4, z+1/12'
   'y+1/6, -x+1/12, -z+1/4'
   'x+1/4, z+1/12, -y+1/6'
   '-x+1/12, -z+1/4, y+1/6'
   '-x+1/6, z+1/4, y+1/12'
   'x+1/6, -z+1/12, -y+1/4'
   '-x, -z, -y'
   'x, z, y'
   'x+1/12, -z+1/6, y+1/4'
   '-x+1/4, z+1/6, -y+1/12'
   'z+1/4, y+1/12, -x+1/6'
   '-z+1/12, -y+1/4, x+1/6'
   'z+1/12, -y+1/6, x+1/4'
   '-z+1/4, y+1/6, -x+1/12'
   '-z+1/6, y+1/4, x+1/12'
   'z+1/6, -y+1/12, -x+1/4'
   '-z, -y, -x'
   'z, y, x'
   'x, y+1/6, z+1/6'
   '-x, -y+1/6, -z+1/6'
   '-x+1/4, -y+1/4, z'
   'x+1/12, y+1/12, -z'
   '-x+1/12, y, -z+1/12'
   'x+1/4, -y, z+1/4'
   'x+1/6, -y+1/12, -z+1/4'
   '-x+1/6, y+1/4, z+1/12'
   'z, x+1/6, y+1/6'
   '-z, -x+1/6, -y+1/6'
   'z+1/6, -x+1/12, -y+1/4'
   '-z+1/6, x+1/4, y+1/12'
   '-z+1/4, -x+1/4, y'
   'z+1/12, x+1/12, -y'
   '-z+1/12, x, -y+1/12'
   'z+1/4, -x, y+1/4'
   'y, z+1/6, x+1/6'
   '-y, -z+1/6, -x+1/6'
   '-y+1/12, z, -x+1/12'
   'y+1/4, -z, x+1/4'
   'y+1/6, -z+1/12, -x+1/4'
   '-y+1/6, z+1/4, x+1/12'
   '-y+1/4, -z+1/4, x'
   'y+1/12, z+1/12, -x'
   'y+1/4, x+1/4, -z'
   '-y+1/12, -x+1/12, z'
   '-y, -x+1/6, -z+1/6'
   'y, x+1/6, z+1/6'
   'y+1/12, -x, z+1/12'
   '-y+1/4, x, -z+1/4'
   '-y+1/6, x+1/12, z+1/4'
   'y+1/6, -x+1/4, -z+1/12'
   'x+1/4, z+1/4, -y'
   '-x+1/12, -z+1/12, y'
   '-x+1/6, z+1/12, y+1/4'
   'x+1/6, -z+1/4, -y+1/12'
   '-x, -z+1/6, -y+1/6'
   'x, z+1/6, y+1/6'
   'x+1/12, -z, y+1/12'
   '-x+1/4, z, -y+1/4'
   'z+1/4, y+1/4, -x'
   '-z+1/12, -y+1/12, x'
   'z+1/12, -y, x+1/12'
   '-z+1/4, y, -x+1/4'
   '-z+1/6, y+1/12, x+1/4'
   'z+1/6, -y+1/4, -x+1/12'
   '-z, -y+1/6, -x+1/6'
   'z, y+1/6, x+1/6'
   'x+1/6, y, z+1/6'
   '-x+1/6, -y, -z+1/6'
   '-x+1/12, -y+1/12, z'
   'x+1/4, y+1/4, -z'
   '-x+1/4, y+1/6, -z+1/12'
   'x+1/12, -y+1/6, z+1/4'
   'x, -y+1/4, -z+1/4'
   '-x, y+1/12, z+1/12'
   'z+1/6, x, y+1/6'
   '-z+1/6, -x, -y+1/6'
   'z, -x+1/4, -y+1/4'
   '-z, x+1/12, y+1/12'
   '-z+1/12, -x+1/12, y'
   'z+1/4, x+1/4, -y'
   '-z+1/4, x+1/6, -y+1/12'
   'z+1/12, -x+1/6, y+1/4'
   'y+1/6, z, x+1/6'
   '-y+1/6, -z, -x+1/6'
   '-y+1/4, z+1/6, -x+1/12'
   'y+1/12, -z+1/6, x+1/4'
   'y, -z+1/4, -x+1/4'
   '-y, z+1/12, x+1/12'
   '-y+1/12, -z+1/12, x'
   'y+1/4, z+1/4, -x'
   'y+1/12, x+1/12, -z'
   '-y+1/4, -x+1/4, z'
   '-y+1/6, -x, -z+1/6'
   'y+1/6, x, z+1/6'
   'y+1/4, -x+1/6, z+1/12'
   '-y+1/12, x+1/6, -z+1/4'
   '-y, x+1/4, z+1/4'
   'y, -x+1/12, -z+1/12'
   'x+1/12, z+1/12, -y'
   '-x+1/4, -z+1/4, y'
   '-x, z+1/4, y+1/4'
   'x, -z+1/12, -y+1/12'
   '-x+1/6, -z, -y+1/6'
   'x+1/6, z, y+1/6'
   'x+1/4, -z+1/6, y+1/12'
   '-x+1/12, z+1/6, -y+1/4'
   'z+1/12, y+1/12, -x'
   '-z+1/4, -y+1/4, x'
   'z+1/4, -y+1/6, x+1/12'
   '-z+1/12, y+1/6, -x+1/4'
   '-z, y+1/4, x+1/4'
   'z, -y+1/12, -x+1/12'
   '-z+1/6, -y, -x+1/6'
   'z+1/6, y, x+1/6'
   'x+1/6, y+1/6, z'
   '-x+1/6, -y+1/6, -z'
   '-x+1/12, -y+1/4, z+1/6'
   'x+1/4, y+1/12, -z+1/6'
   '-x+1/4, y, -z+1/4'
   'x+1/12, -y, z+1/12'
   'x, -y+1/12, -z+1/12'
   '-x, y+1/4, z+1/4'
   'z+1/6, x+1/6, y'
   '-z+1/6, -x+1/6, -y'
   'z, -x+1/12, -y+1/12'
   '-z, x+1/4, y+1/4'
   '-z+1/12, -x+1/4, y+1/6'
   'z+1/4, x+1/12, -y+1/6'
   '-z+1/4, x, -y+1/4'
   'z+1/12, -x, y+1/12'
   'y+1/6, z+1/6, x'
   '-y+1/6, -z+1/6, -x'
   '-y+1/4, z, -x+1/4'
   'y+1/12, -z, x+1/12'
   'y, -z+1/12, -x+1/12'
   '-y, z+1/4, x+1/4'
   '-y+1/12, -z+1/4, x+1/6'
   'y+1/4, z+1/12, -x+1/6'
   'y+1/12, x+1/4, -z+1/6'
   '-y+1/4, -x+1/12, z+1/6'
   '-y+1/6, -x+1/6, -z'
   'y+1/6, x+1/6, z'
   'y+1/4, -x, z+1/4'
   '-y+1/12, x, -z+1/12'
   '-y, x+1/12, z+1/12'
   'y, -x+1/4, -z+1/4'
   'x+1/12, z+1/4, -y+1/6'
   '-x+1/4, -z+1/12, y+1/6'
   '-x, z+1/12, y+1/12'
   'x, -z+1/4, -y+1/4'
   '-x+1/6, -z+1/6, -y'
   'x+1/6, z+1/6, y'
   'x+1/4, -z, y+1/4'
   '-x+1/12, z, -y+1/12'
   'z+1/12, y+1/4, -x+1/6'
   '-z+1/4, -y+1/12, x+1/6'
   'z+1/4, -y, x+1/4'
   '-z+1/12, y, -x+1/12'
   '-z, y+1/12, x+1/12'
   'z, -y+1/4, -x+1/4'
   '-z+1/6, -y+1/6, -x'
   'z+1/6, y+1/6, x'
   'x, y, z+1/3'
   '-x, -y, -z+2/3'
   '-x+1/4, -y+1/12, z+1/2'
   'x+1/12, y+1/4, -z+5/6'
   '-x+1/12, y+1/6, -z+11/12'
   'x+1/4, -y+1/6, z+5/12'
   'x+1/6, -y+1/4, -z+3/4'
   '-x+1/6, y+1/12, z+7/12'
   'z+1/3, x, y'
   '-z+2/3, -x, -y'
   'z+1/2, -x+1/4, -y+1/12'
   '-z+5/6, x+1/12, y+1/4'
   '-z+11/12, -x+1/12, y+1/6'
   'z+5/12, x+1/4, -y+1/6'
   '-z+3/4, x+1/6, -y+1/4'
   'z+7/12, -x+1/6, y+1/12'
   'y, z+1/3, x'
   '-y, -z+2/3, -x'
   '-y+1/12, z+1/2, -x+1/4'
   'y+1/4, -z+5/6, x+1/12'
   'y+1/6, -z+11/12, -x+1/12'
   '-y+1/6, z+5/12, x+1/4'
   '-y+1/4, -z+3/4, x+1/6'
   'y+1/12, z+7/12, -x+1/6'
   'y+1/4, x+1/12, -z+5/6'
   '-y+1/12, -x+1/4, z+1/2'
   '-y, -x, -z+2/3'
   'y, x, z+1/3'
   'y+1/12, -x+1/6, z+7/12'
   '-y+1/4, x+1/6, -z+3/4'
   '-y+1/6, x+1/4, z+5/12'
   'y+1/6, -x+1/12, -z+11/12'
   'x+1/4, z+5/12, -y+1/6'
   '-x+1/12, -z+11/12, y+1/6'
   '-x+1/6, z+7/12, y+1/12'
   'x+1/6, -z+3/4, -y+1/4'
   '-x, -z+2/3, -y'
   'x, z+1/3, y'
   'x+1/12, -z+5/6, y+1/4'
   '-x+1/4, z+1/2, -y+1/12'
   'z+7/12, y+1/12, -x+1/6'
   '-z+3/4, -y+1/4, x+1/6'
   'z+5/12, -y+1/6, x+1/4'
   '-z+11/12, y+1/6, -x+1/12'
   '-z+5/6, y+1/4, x+1/12'
   'z+1/2, -y+1/12, -x+1/4'
   '-z+2/3, -y, -x'
   'z+1/3, y, x'
   'x, y+1/6, z+1/2'
   '-x, -y+1/6, -z+5/6'
   '-x+1/4, -y+1/4, z+1/3'
   'x+1/12, y+1/12, -z+2/3'
   '-x+1/12, y, -z+3/4'
   'x+1/4, -y, z+7/12'
   'x+1/6, -y+1/12, -z+11/12'
   '-x+1/6, y+1/4, z+5/12'
   'z+1/3, x+1/6, y+1/6'
   '-z+2/3, -x+1/6, -y+1/6'
   'z+1/2, -x+1/12, -y+1/4'
   '-z+5/6, x+1/4, y+1/12'
   '-z+11/12, -x+1/4, y'
   'z+5/12, x+1/12, -y'
   '-z+3/4, x, -y+1/12'
   'z+7/12, -x, y+1/4'
   'y, z+1/2, x+1/6'
   '-y, -z+5/6, -x+1/6'
   '-y+1/12, z+1/3, -x+1/12'
   'y+1/4, -z+2/3, x+1/4'
   'y+1/6, -z+3/4, -x+1/4'
   '-y+1/6, z+7/12, x+1/12'
   '-y+1/4, -z+11/12, x'
   'y+1/12, z+5/12, -x'
   'y+1/4, x+1/4, -z+2/3'
   '-y+1/12, -x+1/12, z+1/3'
   '-y, -x+1/6, -z+5/6'
   'y, x+1/6, z+1/2'
   'y+1/12, -x, z+5/12'
   '-y+1/4, x, -z+11/12'
   '-y+1/6, x+1/12, z+7/12'
   'y+1/6, -x+1/4, -z+3/4'
   'x+1/4, z+7/12, -y'
   '-x+1/12, -z+3/4, y'
   '-x+1/6, z+5/12, y+1/4'
   'x+1/6, -z+11/12, -y+1/12'
   '-x, -z+5/6, -y+1/6'
   'x, z+1/2, y+1/6'
   'x+1/12, -z+2/3, y+1/12'
   '-x+1/4, z+1/3, -y+1/4'
   'z+7/12, y+1/4, -x'
   '-z+3/4, -y+1/12, x'
   'z+5/12, -y, x+1/12'
   '-z+11/12, y, -x+1/4'
   '-z+5/6, y+1/12, x+1/4'
   'z+1/2, -y+1/4, -x+1/12'
   '-z+2/3, -y+1/6, -x+1/6'
   'z+1/3, y+1/6, x+1/6'
   'x+1/6, y, z+1/2'
   '-x+1/6, -y, -z+5/6'
   '-x+1/12, -y+1/12, z+1/3'
   'x+1/4, y+1/4, -z+2/3'
   '-x+1/4, y+1/6, -z+3/4'
   'x+1/12, -y+1/6, z+7/12'
   'x, -y+1/4, -z+11/12'
   '-x, y+1/12, z+5/12'
   'z+1/2, x, y+1/6'
   '-z+5/6, -x, -y+1/6'
   'z+1/3, -x+1/4, -y+1/4'
   '-z+2/3, x+1/12, y+1/12'
   '-z+3/4, -x+1/12, y'
   'z+7/12, x+1/4, -y'
   '-z+11/12, x+1/6, -y+1/12'
   'z+5/12, -x+1/6, y+1/4'
   'y+1/6, z+1/3, x+1/6'
   '-y+1/6, -z+2/3, -x+1/6'
   '-y+1/4, z+1/2, -x+1/12'
   'y+1/12, -z+5/6, x+1/4'
   'y, -z+11/12, -x+1/4'
   '-y, z+5/12, x+1/12'
   '-y+1/12, -z+3/4, x'
   'y+1/4, z+7/12, -x'
   'y+1/12, x+1/12, -z+2/3'
   '-y+1/4, -x+1/4, z+1/3'
   '-y+1/6, -x, -z+5/6'
   'y+1/6, x, z+1/2'
   'y+1/4, -x+1/6, z+5/12'
   '-y+1/12, x+1/6, -z+11/12'
   '-y, x+1/4, z+7/12'
   'y, -x+1/12, -z+3/4'
   'x+1/12, z+5/12, -y'
   '-x+1/4, -z+11/12, y'
   '-x, z+7/12, y+1/4'
   'x, -z+3/4, -y+1/12'
   '-x+1/6, -z+2/3, -y+1/6'
   'x+1/6, z+1/3, y+1/6'
   'x+1/4, -z+5/6, y+1/12'
   '-x+1/12, z+1/2, -y+1/4'
   'z+5/12, y+1/12, -x'
   '-z+11/12, -y+1/4, x'
   'z+7/12, -y+1/6, x+1/12'
   '-z+3/4, y+1/6, -x+1/4'
   '-z+2/3, y+1/4, x+1/4'
   'z+1/3, -y+1/12, -x+1/12'
   '-z+5/6, -y, -x+1/6'
   'z+1/2, y, x+1/6'
   'x+1/6, y+1/6, z+1/3'
   '-x+1/6, -y+1/6, -z+2/3'
   '-x+1/12, -y+1/4, z+1/2'
   'x+1/4, y+1/12, -z+5/6'
   '-x+1/4, y, -z+11/12'
   'x+1/12, -y, z+5/12'
   'x, -y+1/12, -z+3/4'
   '-x, y+1/4, z+7/12'
   'z+1/2, x+1/6, y'
   '-z+5/6, -x+1/6, -y'
   'z+1/3, -x+1/12, -y+1/12'
   '-z+2/3, x+1/4, y+1/4'
   '-z+3/4, -x+1/4, y+1/6'
   'z+7/12, x+1/12, -y+1/6'
   '-z+11/12, x, -y+1/4'
   'z+5/12, -x, y+1/12'
   'y+1/6, z+1/2, x'
   '-y+1/6, -z+5/6, -x'
   '-y+1/4, z+1/3, -x+1/4'
   'y+1/12, -z+2/3, x+1/12'
   'y, -z+3/4, -x+1/12'
   '-y, z+7/12, x+1/4'
   '-y+1/12, -z+11/12, x+1/6'
   'y+1/4, z+5/12, -x+1/6'
   'y+1/12, x+1/4, -z+5/6'
   '-y+1/4, -x+1/12, z+1/2'
   '-y+1/6, -x+1/6, -z+2/3'
   'y+1/6, x+1/6, z+1/3'
   'y+1/4, -x, z+7/12'
   '-y+1/12, x, -z+3/4'
   '-y, x+1/12, z+5/12'
   'y, -x+1/4, -z+11/12'
   'x+1/12, z+7/12, -y+1/6'
   '-x+1/4, -z+3/4, y+1/6'
   '-x, z+5/12, y+1/12'
   'x, -z+11/12, -y+1/4'
   '-x+1/6, -z+5/6, -y'
   'x+1/6, z+1/2, y'
   'x+1/4, -z+2/3, y+1/4'
   '-x+1/12, z+1/3, -y+1/12'
   'z+5/12, y+1/4, -x+1/6'
   '-z+11/12, -y+1/12, x+1/6'
   'z+7/12, -y, x+1/4'
   '-z+3/4, y, -x+1/12'
   '-z+2/3, y+1/12, x+1/12'
   'z+1/3, -y+1/4, -x+1/4'
   '-z+5/6, -y+1/6, -x'
   'z+1/2, y+1/6, x'
   'x, y, z+2/3'
   '-x, -y, -z+1/3'
   '-x+1/4, -y+1/12, z+5/6'
   'x+1/12, y+1/4, -z+1/2'
   '-x+1/12, y+1/6, -z+7/12'
   'x+1/4, -y+1/6, z+3/4'
   'x+1/6, -y+1/4, -z+5/12'
   '-x+1/6, y+1/12, z+11/12'
   'z+2/3, x, y'
   '-z+1/3, -x, -y'
   'z+5/6, -x+1/4, -y+1/12'
   '-z+1/2, x+1/12, y+1/4'
   '-z+7/12, -x+1/12, y+1/6'
   'z+3/4, x+1/4, -y+1/6'
   '-z+5/12, x+1/6, -y+1/4'
   'z+11/12, -x+1/6, y+1/12'
   'y, z+2/3, x'
   '-y, -z+1/3, -x'
   '-y+1/12, z+5/6, -x+1/4'
   'y+1/4, -z+1/2, x+1/12'
   'y+1/6, -z+7/12, -x+1/12'
   '-y+1/6, z+3/4, x+1/4'
   '-y+1/4, -z+5/12, x+1/6'
   'y+1/12, z+11/12, -x+1/6'
   'y+1/4, x+1/12, -z+1/2'
   '-y+1/12, -x+1/4, z+5/6'
   '-y, -x, -z+1/3'
   'y, x, z+2/3'
   'y+1/12, -x+1/6, z+11/12'
   '-y+1/4, x+1/6, -z+5/12'
   '-y+1/6, x+1/4, z+3/4'
   'y+1/6, -x+1/12, -z+7/12'
   'x+1/4, z+3/4, -y+1/6'
   '-x+1/12, -z+7/12, y+1/6'
   '-x+1/6, z+11/12, y+1/12'
   'x+1/6, -z+5/12, -y+1/4'
   '-x, -z+1/3, -y'
   'x, z+2/3, y'
   'x+1/12, -z+1/2, y+1/4'
   '-x+1/4, z+5/6, -y+1/12'
   'z+11/12, y+1/12, -x+1/6'
   '-z+5/12, -y+1/4, x+1/6'
   'z+3/4, -y+1/6, x+1/4'
   '-z+7/12, y+1/6, -x+1/12'
   '-z+1/2, y+1/4, x+1/12'
   'z+5/6, -y+1/12, -x+1/4'
   '-z+1/3, -y, -x'
   'z+2/3, y, x'
   'x, y+1/6, z+5/6'
   '-x, -y+1/6, -z+1/2'
   '-x+1/4, -y+1/4, z+2/3'
   'x+1/12, y+1/12, -z+1/3'
   '-x+1/12, y, -z+5/12'
   'x+1/4, -y, z+11/12'
   'x+1/6, -y+1/12, -z+7/12'
   '-x+1/6, y+1/4, z+3/4'
   'z+2/3, x+1/6, y+1/6'
   '-z+1/3, -x+1/6, -y+1/6'
   'z+5/6, -x+1/12, -y+1/4'
   '-z+1/2, x+1/4, y+1/12'
   '-z+7/12, -x+1/4, y'
   'z+3/4, x+1/12, -y'
   '-z+5/12, x, -y+1/12'
   'z+11/12, -x, y+1/4'
   'y, z+5/6, x+1/6'
   '-y, -z+1/2, -x+1/6'
   '-y+1/12, z+2/3, -x+1/12'
   'y+1/4, -z+1/3, x+1/4'
   'y+1/6, -z+5/12, -x+1/4'
   '-y+1/6, z+11/12, x+1/12'
   '-y+1/4, -z+7/12, x'
   'y+1/12, z+3/4, -x'
   'y+1/4, x+1/4, -z+1/3'
   '-y+1/12, -x+1/12, z+2/3'
   '-y, -x+1/6, -z+1/2'
   'y, x+1/6, z+5/6'
   'y+1/12, -x, z+3/4'
   '-y+1/4, x, -z+7/12'
   '-y+1/6, x+1/12, z+11/12'
   'y+1/6, -x+1/4, -z+5/12'
   'x+1/4, z+11/12, -y'
   '-x+1/12, -z+5/12, y'
   '-x+1/6, z+3/4, y+1/4'
   'x+1/6, -z+7/12, -y+1/12'
   '-x, -z+1/2, -y+1/6'
   'x, z+5/6, y+1/6'
   'x+1/12, -z+1/3, y+1/12'
   '-x+1/4, z+2/3, -y+1/4'
   'z+11/12, y+1/4, -x'
   '-z+5/12, -y+1/12, x'
   'z+3/4, -y, x+1/12'
   '-z+7/12, y, -x+1/4'
   '-z+1/2, y+1/12, x+1/4'
   'z+5/6, -y+1/4, -x+1/12'
   '-z+1/3, -y+1/6, -x+1/6'
   'z+2/3, y+1/6, x+1/6'
   'x+1/6, y, z+5/6'
   '-x+1/6, -y, -z+1/2'
   '-x+1/12, -y+1/12, z+2/3'
   'x+1/4, y+1/4, -z+1/3'
   '-x+1/4, y+1/6, -z+5/12'
   'x+1/12, -y+1/6, z+11/12'
   'x, -y+1/4, -z+7/12'
   '-x, y+1/12, z+3/4'
   'z+5/6, x, y+1/6'
   '-z+1/2, -x, -y+1/6'
   'z+2/3, -x+1/4, -y+1/4'
   '-z+1/3, x+1/12, y+1/12'
   '-z+5/12, -x+1/12, y'
   'z+11/12, x+1/4, -y'
   '-z+7/12, x+1/6, -y+1/12'
   'z+3/4, -x+1/6, y+1/4'
   'y+1/6, z+2/3, x+1/6'
   '-y+1/6, -z+1/3, -x+1/6'
   '-y+1/4, z+5/6, -x+1/12'
   'y+1/12, -z+1/2, x+1/4'
   'y, -z+7/12, -x+1/4'
   '-y, z+3/4, x+1/12'
   '-y+1/12, -z+5/12, x'
   'y+1/4, z+11/12, -x'
   'y+1/12, x+1/12, -z+1/3'
   '-y+1/4, -x+1/4, z+2/3'
   '-y+1/6, -x, -z+1/2'
   'y+1/6, x, z+5/6'
   'y+1/4, -x+1/6, z+3/4'
   '-y+1/12, x+1/6, -z+7/12'
   '-y, x+1/4, z+11/12'
   'y, -x+1/12, -z+5/12'
   'x+1/12, z+3/4, -y'
   '-x+1/4, -z+7/12, y'
   '-x, z+11/12, y+1/4'
   'x, -z+5/12, -y+1/12'
   '-x+1/6, -z+1/3, -y+1/6'
   'x+1/6, z+2/3, y+1/6'
   'x+1/4, -z+1/2, y+1/12'
   '-x+1/12, z+5/6, -y+1/4'
   'z+3/4, y+1/12, -x'
   '-z+7/12, -y+1/4, x'
   'z+11/12, -y+1/6, x+1/12'
   '-z+5/12, y+1/6, -x+1/4'
   '-z+1/3, y+1/4, x+1/4'
   'z+2/3, -y+1/12, -x+1/12'
   '-z+1/2, -y, -x+1/6'
   'z+5/6, y, x+1/6'
   'x+1/6, y+1/6, z+2/3'
   '-x+1/6, -y+1/6, -z+1/3'
   '-x+1/12, -y+1/4, z+5/6'
   'x+1/4, y+1/12, -z+1/2'
   '-x+1/4, y, -z+7/12'
   'x+1/12, -y, z+3/4'
   'x, -y+1/12, -z+5/12'
   '-x, y+1/4, z+11/12'
   'z+5/6, x+1/6, y'
   '-z+1/2, -x+1/6, -y'
   'z+2/3, -x+1/12, -y+1/12'
   '-z+1/3, x+1/4, y+1/4'
   '-z+5/12, -x+1/4, y+1/6'
   'z+11/12, x+1/12, -y+1/6'
   '-z+7/12, x, -y+1/4'
   'z+3/4, -x, y+1/12'
   'y+1/6, z+5/6, x'
   '-y+1/6, -z+1/2, -x'
   '-y+1/4, z+2/3, -x+1/4'
   'y+1/12, -z+1/3, x+1/12'
   'y, -z+5/12, -x+1/12'
   '-y, z+11/12, x+1/4'
   '-y+1/12, -z+7/12, x+1/6'
   'y+1/4, z+3/4, -x+1/6'
   'y+1/12, x+1/4, -z+1/2'
   '-y+1/4, -x+1/12, z+5/6'
   '-y+1/6, -x+1/6, -z+1/3'
   'y+1/6, x+1/6, z+2/3'
   'y+1/4, -x, z+11/12'
   '-y+1/12, x, -z+5/12'
   '-y, x+1/12, z+3/4'
   'y, -x+1/4, -z+7/12'
   'x+1/12, z+11/12, -y+1/6'
   '-x+1/4, -z+5/12, y+1/6'
   '-x, z+3/4, y+1/12'
   'x, -z+7/12, -y+1/4'
   '-x+1/6, -z+1/2, -y'
   'x+1/6, z+5/6, y'
   'x+1/4, -z+1/3, y+1/4'
   '-x+1/12, z+2/3, -y+1/12'
   'z+3/4, y+1/4, -x+1/6'
   '-z+7/12, -y+1/12, x+1/6'
   'z+11/12, -y, x+1/4'
   '-z+5/12, y, -x+1/12'
   '-z+1/3, y+1/12, x+1/12'
   'z+2/3, -y+1/4, -x+1/4'
   '-z+1/2, -y+1/6, -x'
   'z+5/6, y+1/6, x'
   'x, y+1/3, z'
   '-x, -y+2/3, -z'
   '-x+1/4, -y+3/4, z+1/6'
   'x+1/12, y+7/12, -z+1/6'
   '-x+1/12, y+1/2, -z+1/4'
   'x+1/4, -y+5/6, z+1/12'
   'x+1/6, -y+11/12, -z+1/12'
   '-x+1/6, y+5/12, z+1/4'
   'z, x, y+1/3'
   '-z, -x, -y+2/3'
   'z+1/6, -x+1/4, -y+3/4'
   '-z+1/6, x+1/12, y+7/12'
   '-z+1/4, -x+1/12, y+1/2'
   'z+1/12, x+1/4, -y+5/6'
   '-z+1/12, x+1/6, -y+11/12'
   'z+1/4, -x+1/6, y+5/12'
   'y+1/3, z, x'
   '-y+2/3, -z, -x'
   '-y+3/4, z+1/6, -x+1/4'
   'y+7/12, -z+1/6, x+1/12'
   'y+1/2, -z+1/4, -x+1/12'
   '-y+5/6, z+1/12, x+1/4'
   '-y+11/12, -z+1/12, x+1/6'
   'y+5/12, z+1/4, -x+1/6'
   'y+7/12, x+1/12, -z+1/6'
   '-y+3/4, -x+1/4, z+1/6'
   '-y+2/3, -x, -z'
   'y+1/3, x, z'
   'y+5/12, -x+1/6, z+1/4'
   '-y+11/12, x+1/6, -z+1/12'
   '-y+5/6, x+1/4, z+1/12'
   'y+1/2, -x+1/12, -z+1/4'
   'x+1/4, z+1/12, -y+5/6'
   '-x+1/12, -z+1/4, y+1/2'
   '-x+1/6, z+1/4, y+5/12'
   'x+1/6, -z+1/12, -y+11/12'
   '-x, -z, -y+2/3'
   'x, z, y+1/3'
   'x+1/12, -z+1/6, y+7/12'
   '-x+1/4, z+1/6, -y+3/4'
   'z+1/4, y+5/12, -x+1/6'
   '-z+1/12, -y+11/12, x+1/6'
   'z+1/12, -y+5/6, x+1/4'
   '-z+1/4, y+1/2, -x+1/12'
   '-z+1/6, y+7/12, x+1/12'
   'z+1/6, -y+3/4, -x+1/4'
   '-z, -y+2/3, -x'
   'z, y+1/3, x'
   'x, y+1/2, z+1/6'
   '-x, -y+5/6, -z+1/6'
   '-x+1/4, -y+11/12, z'
   'x+1/12, y+5/12, -z'
   '-x+1/12, y+1/3, -z+1/12'
   'x+1/4, -y+2/3, z+1/4'
   'x+1/6, -y+3/4, -z+1/4'
   '-x+1/6, y+7/12, z+1/12'
   'z, x+1/6, y+1/2'
   '-z, -x+1/6, -y+5/6'
   'z+1/6, -x+1/12, -y+11/12'
   '-z+1/6, x+1/4, y+5/12'
   '-z+1/4, -x+1/4, y+1/3'
   'z+1/12, x+1/12, -y+2/3'
   '-z+1/12, x, -y+3/4'
   'z+1/4, -x, y+7/12'
   'y+1/3, z+1/6, x+1/6'
   '-y+2/3, -z+1/6, -x+1/6'
   '-y+3/4, z, -x+1/12'
   'y+7/12, -z, x+1/4'
   'y+1/2, -z+1/12, -x+1/4'
   '-y+5/6, z+1/4, x+1/12'
   '-y+11/12, -z+1/4, x'
   'y+5/12, z+1/12, -x'
   'y+7/12, x+1/4, -z'
   '-y+3/4, -x+1/12, z'
   '-y+2/3, -x+1/6, -z+1/6'
   'y+1/3, x+1/6, z+1/6'
   'y+5/12, -x, z+1/12'
   '-y+11/12, x, -z+1/4'
   '-y+5/6, x+1/12, z+1/4'
   'y+1/2, -x+1/4, -z+1/12'
   'x+1/4, z+1/4, -y+2/3'
   '-x+1/12, -z+1/12, y+1/3'
   '-x+1/6, z+1/12, y+7/12'
   'x+1/6, -z+1/4, -y+3/4'
   '-x, -z+1/6, -y+5/6'
   'x, z+1/6, y+1/2'
   'x+1/12, -z, y+5/12'
   '-x+1/4, z, -y+11/12'
   'z+1/4, y+7/12, -x'
   '-z+1/12, -y+3/4, x'
   'z+1/12, -y+2/3, x+1/12'
   '-z+1/4, y+1/3, -x+1/4'
   '-z+1/6, y+5/12, x+1/4'
   'z+1/6, -y+11/12, -x+1/12'
   '-z, -y+5/6, -x+1/6'
   'z, y+1/2, x+1/6'
   'x+1/6, y+1/3, z+1/6'
   '-x+1/6, -y+2/3, -z+1/6'
   '-x+1/12, -y+3/4, z'
   'x+1/4, y+7/12, -z'
   '-x+1/4, y+1/2, -z+1/12'
   'x+1/12, -y+5/6, z+1/4'
   'x, -y+11/12, -z+1/4'
   '-x, y+5/12, z+1/12'
   'z+1/6, x, y+1/2'
   '-z+1/6, -x, -y+5/6'
   'z, -x+1/4, -y+11/12'
   '-z, x+1/12, y+5/12'
   '-z+1/12, -x+1/12, y+1/3'
   'z+1/4, x+1/4, -y+2/3'
   '-z+1/4, x+1/6, -y+3/4'
   'z+1/12, -x+1/6, y+7/12'
   'y+1/2, z, x+1/6'
   '-y+5/6, -z, -x+1/6'
   '-y+11/12, z+1/6, -x+1/12'
   'y+5/12, -z+1/6, x+1/4'
   'y+1/3, -z+1/4, -x+1/4'
   '-y+2/3, z+1/12, x+1/12'
   '-y+3/4, -z+1/12, x'
   'y+7/12, z+1/4, -x'
   'y+5/12, x+1/12, -z'
   '-y+11/12, -x+1/4, z'
   '-y+5/6, -x, -z+1/6'
   'y+1/2, x, z+1/6'
   'y+7/12, -x+1/6, z+1/12'
   '-y+3/4, x+1/6, -z+1/4'
   '-y+2/3, x+1/4, z+1/4'
   'y+1/3, -x+1/12, -z+1/12'
   'x+1/12, z+1/12, -y+2/3'
   '-x+1/4, -z+1/4, y+1/3'
   '-x, z+1/4, y+7/12'
   'x, -z+1/12, -y+3/4'
   '-x+1/6, -z, -y+5/6'
   'x+1/6, z, y+1/2'
   'x+1/4, -z+1/6, y+5/12'
   '-x+1/12, z+1/6, -y+11/12'
   'z+1/12, y+5/12, -x'
   '-z+1/4, -y+11/12, x'
   'z+1/4, -y+5/6, x+1/12'
   '-z+1/12, y+1/2, -x+1/4'
   '-z, y+7/12, x+1/4'
   'z, -y+3/4, -x+1/12'
   '-z+1/6, -y+2/3, -x+1/6'
   'z+1/6, y+1/3, x+1/6'
   'x+1/6, y+1/2, z'
   '-x+1/6, -y+5/6, -z'
   '-x+1/12, -y+11/12, z+1/6'
   'x+1/4, y+5/12, -z+1/6'
   '-x+1/4, y+1/3, -z+1/4'
   'x+1/12, -y+2/3, z+1/12'
   'x, -y+3/4, -z+1/12'
   '-x, y+7/12, z+1/4'
   'z+1/6, x+1/6, y+1/3'
   '-z+1/6, -x+1/6, -y+2/3'
   'z, -x+1/12, -y+3/4'
   '-z, x+1/4, y+7/12'
   '-z+1/12, -x+1/4, y+1/2'
   'z+1/4, x+1/12, -y+5/6'
   '-z+1/4, x, -y+11/12'
   'z+1/12, -x, y+5/12'
   'y+1/2, z+1/6, x'
   '-y+5/6, -z+1/6, -x'
   '-y+11/12, z, -x+1/4'
   'y+5/12, -z, x+1/12'
   'y+1/3, -z+1/12, -x+1/12'
   '-y+2/3, z+1/4, x+1/4'
   '-y+3/4, -z+1/4, x+1/6'
   'y+7/12, z+1/12, -x+1/6'
   'y+5/12, x+1/4, -z+1/6'
   '-y+11/12, -x+1/12, z+1/6'
   '-y+5/6, -x+1/6, -z'
   'y+1/2, x+1/6, z'
   'y+7/12, -x, z+1/4'
   '-y+3/4, x, -z+1/12'
   '-y+2/3, x+1/12, z+1/12'
   'y+1/3, -x+1/4, -z+1/4'
   'x+1/12, z+1/4, -y+5/6'
   '-x+1/4, -z+1/12, y+1/2'
   '-x, z+1/12, y+5/12'
   'x, -z+1/4, -y+11/12'
   '-x+1/6, -z+1/6, -y+2/3'
   'x+1/6, z+1/6, y+1/3'
   'x+1/4, -z, y+7/12'
   '-x+1/12, z, -y+3/4'
   'z+1/12, y+7/12, -x+1/6'
   '-z+1/4, -y+3/4, x+1/6'
   'z+1/4, -y+2/3, x+1/4'
   '-z+1/12, y+1/3, -x+1/12'
   '-z, y+5/12, x+1/12'
   'z, -y+11/12, -x+1/4'
   '-z+1/6, -y+5/6, -x'
   'z+1/6, y+1/2, x'
   'x, y+1/3, z+1/3'
   '-x, -y+2/3, -z+2/3'
   '-x+1/4, -y+3/4, z+1/2'
   'x+1/12, y+7/12, -z+5/6'
   '-x+1/12, y+1/2, -z+11/12'
   'x+1/4, -y+5/6, z+5/12'
   'x+1/6, -y+11/12, -z+3/4'
   '-x+1/6, y+5/12, z+7/12'
   'z+1/3, x, y+1/3'
   '-z+2/3, -x, -y+2/3'
   'z+1/2, -x+1/4, -y+3/4'
   '-z+5/6, x+1/12, y+7/12'
   '-z+11/12, -x+1/12, y+1/2'
   'z+5/12, x+1/4, -y+5/6'
   '-z+3/4, x+1/6, -y+11/12'
   'z+7/12, -x+1/6, y+5/12'
   'y+1/3, z+1/3, x'
   '-y+2/3, -z+2/3, -x'
   '-y+3/4, z+1/2, -x+1/4'
   'y+7/12, -z+5/6, x+1/12'
   'y+1/2, -z+11/12, -x+1/12'
   '-y+5/6, z+5/12, x+1/4'
   '-y+11/12, -z+3/4, x+1/6'
   'y+5/12, z+7/12, -x+1/6'
   'y+7/12, x+1/12, -z+5/6'
   '-y+3/4, -x+1/4, z+1/2'
   '-y+2/3, -x, -z+2/3'
   'y+1/3, x, z+1/3'
   'y+5/12, -x+1/6, z+7/12'
   '-y+11/12, x+1/6, -z+3/4'
   '-y+5/6, x+1/4, z+5/12'
   'y+1/2, -x+1/12, -z+11/12'
   'x+1/4, z+5/12, -y+5/6'
   '-x+1/12, -z+11/12, y+1/2'
   '-x+1/6, z+7/12, y+5/12'
   'x+1/6, -z+3/4, -y+11/12'
   '-x, -z+2/3, -y+2/3'
   'x, z+1/3, y+1/3'
   'x+1/12, -z+5/6, y+7/12'
   '-x+1/4, z+1/2, -y+3/4'
   'z+7/12, y+5/12, -x+1/6'
   '-z+3/4, -y+11/12, x+1/6'
   'z+5/12, -y+5/6, x+1/4'
   '-z+11/12, y+1/2, -x+1/12'
   '-z+5/6, y+7/12, x+1/12'
   'z+1/2, -y+3/4, -x+1/4'
   '-z+2/3, -y+2/3, -x'
   'z+1/3, y+1/3, x'
   'x, y+1/2, z+1/2'
   '-x, -y+5/6, -z+5/6'
   '-x+1/4, -y+11/12, z+1/3'
   'x+1/12, y+5/12, -z+2/3'
   '-x+1/12, y+1/3, -z+3/4'
   'x+1/4, -y+2/3, z+7/12'
   'x+1/6, -y+3/4, -z+11/12'
   '-x+1/6, y+7/12, z+5/12'
   'z+1/3, x+1/6, y+1/2'
   '-z+2/3, -x+1/6, -y+5/6'
   'z+1/2, -x+1/12, -y+11/12'
   '-z+5/6, x+1/4, y+5/12'
   '-z+11/12, -x+1/4, y+1/3'
   'z+5/12, x+1/12, -y+2/3'
   '-z+3/4, x, -y+3/4'
   'z+7/12, -x, y+7/12'
   'y+1/3, z+1/2, x+1/6'
   '-y+2/3, -z+5/6, -x+1/6'
   '-y+3/4, z+1/3, -x+1/12'
   'y+7/12, -z+2/3, x+1/4'
   'y+1/2, -z+3/4, -x+1/4'
   '-y+5/6, z+7/12, x+1/12'
   '-y+11/12, -z+11/12, x'
   'y+5/12, z+5/12, -x'
   'y+7/12, x+1/4, -z+2/3'
   '-y+3/4, -x+1/12, z+1/3'
   '-y+2/3, -x+1/6, -z+5/6'
   'y+1/3, x+1/6, z+1/2'
   'y+5/12, -x, z+5/12'
   '-y+11/12, x, -z+11/12'
   '-y+5/6, x+1/12, z+7/12'
   'y+1/2, -x+1/4, -z+3/4'
   'x+1/4, z+7/12, -y+2/3'
   '-x+1/12, -z+3/4, y+1/3'
   '-x+1/6, z+5/12, y+7/12'
   'x+1/6, -z+11/12, -y+3/4'
   '-x, -z+5/6, -y+5/6'
   'x, z+1/2, y+1/2'
   'x+1/12, -z+2/3, y+5/12'
   '-x+1/4, z+1/3, -y+11/12'
   'z+7/12, y+7/12, -x'
   '-z+3/4, -y+3/4, x'
   'z+5/12, -y+2/3, x+1/12'
   '-z+11/12, y+1/3, -x+1/4'
   '-z+5/6, y+5/12, x+1/4'
   'z+1/2, -y+11/12, -x+1/12'
   '-z+2/3, -y+5/6, -x+1/6'
   'z+1/3, y+1/2, x+1/6'
   'x+1/6, y+1/3, z+1/2'
   '-x+1/6, -y+2/3, -z+5/6'
   '-x+1/12, -y+3/4, z+1/3'
   'x+1/4, y+7/12, -z+2/3'
   '-x+1/4, y+1/2, -z+3/4'
   'x+1/12, -y+5/6, z+7/12'
   'x, -y+11/12, -z+11/12'
   '-x, y+5/12, z+5/12'
   'z+1/2, x, y+1/2'
   '-z+5/6, -x, -y+5/6'
   'z+1/3, -x+1/4, -y+11/12'
   '-z+2/3, x+1/12, y+5/12'
   '-z+3/4, -x+1/12, y+1/3'
   'z+7/12, x+1/4, -y+2/3'
   '-z+11/12, x+1/6, -y+3/4'
   'z+5/12, -x+1/6, y+7/12'
   'y+1/2, z+1/3, x+1/6'
   '-y+5/6, -z+2/3, -x+1/6'
   '-y+11/12, z+1/2, -x+1/12'
   'y+5/12, -z+5/6, x+1/4'
   'y+1/3, -z+11/12, -x+1/4'
   '-y+2/3, z+5/12, x+1/12'
   '-y+3/4, -z+3/4, x'
   'y+7/12, z+7/12, -x'
   'y+5/12, x+1/12, -z+2/3'
   '-y+11/12, -x+1/4, z+1/3'
   '-y+5/6, -x, -z+5/6'
   'y+1/2, x, z+1/2'
   'y+7/12, -x+1/6, z+5/12'
   '-y+3/4, x+1/6, -z+11/12'
   '-y+2/3, x+1/4, z+7/12'
   'y+1/3, -x+1/12, -z+3/4'
   'x+1/12, z+5/12, -y+2/3'
   '-x+1/4, -z+11/12, y+1/3'
   '-x, z+7/12, y+7/12'
   'x, -z+3/4, -y+3/4'
   '-x+1/6, -z+2/3, -y+5/6'
   'x+1/6, z+1/3, y+1/2'
   'x+1/4, -z+5/6, y+5/12'
   '-x+1/12, z+1/2, -y+11/12'
   'z+5/12, y+5/12, -x'
   '-z+11/12, -y+11/12, x'
   'z+7/12, -y+5/6, x+1/12'
   '-z+3/4, y+1/2, -x+1/4'
   '-z+2/3, y+7/12, x+1/4'
   'z+1/3, -y+3/4, -x+1/12'
   '-z+5/6, -y+2/3, -x+1/6'
   'z+1/2, y+1/3, x+1/6'
   'x+1/6, y+1/2, z+1/3'
   '-x+1/6, -y+5/6, -z+2/3'
   '-x+1/12, -y+11/12, z+1/2'
   'x+1/4, y+5/12, -z+5/6'
   '-x+1/4, y+1/3, -z+11/12'
   'x+1/12, -y+2/3, z+5/12'
   'x, -y+3/4, -z+3/4'
   '-x, y+7/12, z+7/12'
   'z+1/2, x+1/6, y+1/3'
   '-z+5/6, -x+1/6, -y+2/3'
   'z+1/3, -x+1/12, -y+3/4'
   '-z+2/3, x+1/4, y+7/12'
   '-z+3/4, -x+1/4, y+1/2'
   'z+7/12, x+1/12, -y+5/6'
   '-z+11/12, x, -y+11/12'
   'z+5/12, -x, y+5/12'
   'y+1/2, z+1/2, x'
   '-y+5/6, -z+5/6, -x'
   '-y+11/12, z+1/3, -x+1/4'
   'y+5/12, -z+2/3, x+1/12'
   'y+1/3, -z+3/4, -x+1/12'
   '-y+2/3, z+7/12, x+1/4'
   '-y+3/4, -z+11/12, x+1/6'
   'y+7/12, z+5/12, -x+1/6'
   'y+5/12, x+1/4, -z+5/6'
   '-y+11/12, -x+1/12, z+1/2'
   '-y+5/6, -x+1/6, -z+2/3'
   'y+1/2, x+1/6, z+1/3'
   'y+7/12, -x, z+7/12'
   '-y+3/4, x, -z+3/4'
   '-y+2/3, x+1/12, z+5/12'
   'y+1/3, -x+1/4, -z+11/12'
   'x+1/12, z+7/12, -y+5/6'
   '-x+1/4, -z+3/4, y+1/2'
   '-x, z+5/12, y+5/12'
   'x, -z+11/12, -y+11/12'
   '-x+1/6, -z+5/6, -y+2/3'
   'x+1/6, z+1/2, y+1/3'
   'x+1/4, -z+2/3, y+7/12'
   '-x+1/12, z+1/3, -y+3/4'
   'z+5/12, y+7/12, -x+1/6'
   '-z+11/12, -y+3/4, x+1/6'
   'z+7/12, -y+2/3, x+1/4'
   '-z+3/4, y+1/3, -x+1/12'
   '-z+2/3, y+5/12, x+1/12'
   'z+1/3, -y+11/12, -x+1/4'
   '-z+5/6, -y+5/6, -x'
   'z+1/2, y+1/2, x'
   'x, y+1/3, z+2/3'
   '-x, -y+2/3, -z+1/3'
   '-x+1/4, -y+3/4, z+5/6'
   'x+1/12, y+7/12, -z+1/2'
   '-x+1/12, y+1/2, -z+7/12'
   'x+1/4, -y+5/6, z+3/4'
   'x+1/6, -y+11/12, -z+5/12'
   '-x+1/6, y+5/12, z+11/12'
   'z+2/3, x, y+1/3'
   '-z+1/3, -x, -y+2/3'
   'z+5/6, -x+1/4, -y+3/4'
   '-z+1/2, x+1/12, y+7/12'
   '-z+7/12, -x+1/12, y+1/2'
   'z+3/4, x+1/4, -y+5/6'
   '-z+5/12, x+1/6, -y+11/12'
   'z+11/12, -x+1/6, y+5/12'
   'y+1/3, z+2/3, x'
   '-y+2/3, -z+1/3, -x'
   '-y+3/4, z+5/6, -x+1/4'
   'y+7/12, -z+1/2, x+1/12'
   'y+1/2, -z+7/12, -x+1/12'
   '-y+5/6, z+3/4, x+1/4'
   '-y+11/12, -z+5/12, x+1/6'
   'y+5/12, z+11/12, -x+1/6'
   'y+7/12, x+1/12, -z+1/2'
   '-y+3/4, -x+1/4, z+5/6'
   '-y+2/3, -x, -z+1/3'
   'y+1/3, x, z+2/3'
   'y+5/12, -x+1/6, z+11/12'
   '-y+11/12, x+1/6, -z+5/12'
   '-y+5/6, x+1/4, z+3/4'
   'y+1/2, -x+1/12, -z+7/12'
   'x+1/4, z+3/4, -y+5/6'
   '-x+1/12, -z+7/12, y+1/2'
   '-x+1/6, z+11/12, y+5/12'
   'x+1/6, -z+5/12, -y+11/12'
   '-x, -z+1/3, -y+2/3'
   'x, z+2/3, y+1/3'
   'x+1/12, -z+1/2, y+7/12'
   '-x+1/4, z+5/6, -y+3/4'
   'z+11/12, y+5/12, -x+1/6'
   '-z+5/12, -y+11/12, x+1/6'
   'z+3/4, -y+5/6, x+1/4'
   '-z+7/12, y+1/2, -x+1/12'
   '-z+1/2, y+7/12, x+1/12'
   'z+5/6, -y+3/4, -x+1/4'
   '-z+1/3, -y+2/3, -x'
   'z+2/3, y+1/3, x'
   'x, y+1/2, z+5/6'
   '-x, -y+5/6, -z+1/2'
   '-x+1/4, -y+11/12, z+2/3'
   'x+1/12, y+5/12, -z+1/3'
   '-x+1/12, y+1/3, -z+5/12'
   'x+1/4, -y+2/3, z+11/12'
   'x+1/6, -y+3/4, -z+7/12'
   '-x+1/6, y+7/12, z+3/4'
   'z+2/3, x+1/6, y+1/2'
   '-z+1/3, -x+1/6, -y+5/6'
   'z+5/6, -x+1/12, -y+11/12'
   '-z+1/2, x+1/4, y+5/12'
   '-z+7/12, -x+1/4, y+1/3'
   'z+3/4, x+1/12, -y+2/3'
   '-z+5/12, x, -y+3/4'
   'z+11/12, -x, y+7/12'
   'y+1/3, z+5/6, x+1/6'
   '-y+2/3, -z+1/2, -x+1/6'
   '-y+3/4, z+2/3, -x+1/12'
   'y+7/12, -z+1/3, x+1/4'
   'y+1/2, -z+5/12, -x+1/4'
   '-y+5/6, z+11/12, x+1/12'
   '-y+11/12, -z+7/12, x'
   'y+5/12, z+3/4, -x'
   'y+7/12, x+1/4, -z+1/3'
   '-y+3/4, -x+1/12, z+2/3'
   '-y+2/3, -x+1/6, -z+1/2'
   'y+1/3, x+1/6, z+5/6'
   'y+5/12, -x, z+3/4'
   '-y+11/12, x, -z+7/12'
   '-y+5/6, x+1/12, z+11/12'
   'y+1/2, -x+1/4, -z+5/12'
   'x+1/4, z+11/12, -y+2/3'
   '-x+1/12, -z+5/12, y+1/3'
   '-x+1/6, z+3/4, y+7/12'
   'x+1/6, -z+7/12, -y+3/4'
   '-x, -z+1/2, -y+5/6'
   'x, z+5/6, y+1/2'
   'x+1/12, -z+1/3, y+5/12'
   '-x+1/4, z+2/3, -y+11/12'
   'z+11/12, y+7/12, -x'
   '-z+5/12, -y+3/4, x'
   'z+3/4, -y+2/3, x+1/12'
   '-z+7/12, y+1/3, -x+1/4'
   '-z+1/2, y+5/12, x+1/4'
   'z+5/6, -y+11/12, -x+1/12'
   '-z+1/3, -y+5/6, -x+1/6'
   'z+2/3, y+1/2, x+1/6'
   'x+1/6, y+1/3, z+5/6'
   '-x+1/6, -y+2/3, -z+1/2'
   '-x+1/12, -y+3/4, z+2/3'
   'x+1/4, y+7/12, -z+1/3'
   '-x+1/4, y+1/2, -z+5/12'
   'x+1/12, -y+5/6, z+11/12'
   'x, -y+11/12, -z+7/12'
   '-x, y+5/12, z+3/4'
   'z+5/6, x, y+1/2'
   '-z+1/2, -x, -y+5/6'
   'z+2/3, -x+1/4, -y+11/12'
   '-z+1/3, x+1/12, y+5/12'
   '-z+5/12, -x+1/12, y+1/3'
   'z+11/12, x+1/4, -y+2/3'
   '-z+7/12, x+1/6, -y+3/4'
   'z+3/4, -x+1/6, y+7/12'
   'y+1/2, z+2/3, x+1/6'
   '-y+5/6, -z+1/3, -x+1/6'
   '-y+11/12, z+5/6, -x+1/12'
   'y+5/12, -z+1/2, x+1/4'
   'y+1/3, -z+7/12, -x+1/4'
   '-y+2/3, z+3/4, x+1/12'
   '-y+3/4, -z+5/12, x'
   'y+7/12, z+11/12, -x'
   'y+5/12, x+1/12, -z+1/3'
   '-y+11/12, -x+1/4, z+2/3'
   '-y+5/6, -x, -z+1/2'
   'y+1/2, x, z+5/6'
   'y+7/12, -x+1/6, z+3/4'
   '-y+3/4, x+1/6, -z+7/12'
   '-y+2/3, x+1/4, z+11/12'
   'y+1/3, -x+1/12, -z+5/12'
   'x+1/12, z+3/4, -y+2/3'
   '-x+1/4, -z+7/12, y+1/3'
   '-x, z+11/12, y+7/12'
   'x, -z+5/12, -y+3/4'
   '-x+1/6, -z+1/3, -y+5/6'
   'x+1/6, z+2/3, y+1/2'
   'x+1/4, -z+1/2, y+5/12'
   '-x+1/12, z+5/6, -y+11/12'
   'z+3/4, y+5/12, -x'
   '-z+7/12, -y+11/12, x'
   'z+11/12, -y+5/6, x+1/12'
   '-z+5/12, y+1/2, -x+1/4'
   '-z+1/3, y+7/12, x+1/4'
   'z+2/3, -y+3/4, -x+1/12'
   '-z+1/2, -y+2/3, -x+1/6'
   'z+5/6, y+1/3, x+1/6'
   'x+1/6, y+1/2, z+2/3'
   '-x+1/6, -y+5/6, -z+1/3'
   '-x+1/12, -y+11/12, z+5/6'
   'x+1/4, y+5/12, -z+1/2'
   '-x+1/4, y+1/3, -z+7/12'
   'x+1/12, -y+2/3, z+3/4'
   'x, -y+3/4, -z+5/12'
   '-x, y+7/12, z+11/12'
   'z+5/6, x+1/6, y+1/3'
   '-z+1/2, -x+1/6, -y+2/3'
   'z+2/3, -x+1/12, -y+3/4'
   '-z+1/3, x+1/4, y+7/12'
   '-z+5/12, -x+1/4, y+1/2'
   'z+11/12, x+1/12, -y+5/6'
   '-z+7/12, x, -y+11/12'
   'z+3/4, -x, y+5/12'
   'y+1/2, z+5/6, x'
   '-y+5/6, -z+1/2, -x'
   '-y+11/12, z+2/3, -x+1/4'
   'y+5/12, -z+1/3, x+1/12'
   'y+1/3, -z+5/12, -x+1/12'
   '-y+2/3, z+11/12, x+1/4'
   '-y+3/4, -z+7/12, x+1/6'
   'y+7/12, z+3/4, -x+1/6'
   'y+5/12, x+1/4, -z+1/2'
   '-y+11/12, -x+1/12, z+5/6'
   '-y+5/6, -x+1/6, -z+1/3'
   'y+1/2, x+1/6, z+2/3'
   'y+7/12, -x, z+11/12'
   '-y+3/4, x, -z+5/12'
   '-y+2/3, x+1/12, z+3/4'
   'y+1/3, -x+1/4, -z+7/12'
   'x+1/12, z+11/12, -y+5/6'
   '-x+1/4, -z+5/12, y+1/2'
   '-x, z+3/4, y+5/12'
   'x, -z+7/12, -y+11/12'
   '-x+1/6, -z+1/2, -y+2/3'
   'x+1/6, z+5/6, y+1/3'
   'x+1/4, -z+1/3, y+7/12'
   '-x+1/12, z+2/3, -y+3/4'
   'z+3/4, y+7/12, -x+1/6'
   '-z+7/12, -y+3/4, x+1/6'
   'z+11/12, -y+2/3, x+1/4'
   '-z+5/12, y+1/3, -x+1/12'
   '-z+1/3, y+5/12, x+1/12'
   'z+2/3, -y+11/12, -x+1/4'
   '-z+1/2, -y+5/6, -x'
   'z+5/6, y+1/2, x'
   'x, y+2/3, z'
   '-x, -y+1/3, -z'
   '-x+1/4, -y+5/12, z+1/6'
   'x+1/12, y+11/12, -z+1/6'
   '-x+1/12, y+5/6, -z+1/4'
   'x+1/4, -y+1/2, z+1/12'
   'x+1/6, -y+7/12, -z+1/12'
   '-x+1/6, y+3/4, z+1/4'
   'z, x, y+2/3'
   '-z, -x, -y+1/3'
   'z+1/6, -x+1/4, -y+5/12'
   '-z+1/6, x+1/12, y+11/12'
   '-z+1/4, -x+1/12, y+5/6'
   'z+1/12, x+1/4, -y+1/2'
   '-z+1/12, x+1/6, -y+7/12'
   'z+1/4, -x+1/6, y+3/4'
   'y+2/3, z, x'
   '-y+1/3, -z, -x'
   '-y+5/12, z+1/6, -x+1/4'
   'y+11/12, -z+1/6, x+1/12'
   'y+5/6, -z+1/4, -x+1/12'
   '-y+1/2, z+1/12, x+1/4'
   '-y+7/12, -z+1/12, x+1/6'
   'y+3/4, z+1/4, -x+1/6'
   'y+11/12, x+1/12, -z+1/6'
   '-y+5/12, -x+1/4, z+1/6'
   '-y+1/3, -x, -z'
   'y+2/3, x, z'
   'y+3/4, -x+1/6, z+1/4'
   '-y+7/12, x+1/6, -z+1/12'
   '-y+1/2, x+1/4, z+1/12'
   'y+5/6, -x+1/12, -z+1/4'
   'x+1/4, z+1/12, -y+1/2'
   '-x+1/12, -z+1/4, y+5/6'
   '-x+1/6, z+1/4, y+3/4'
   'x+1/6, -z+1/12, -y+7/12'
   '-x, -z, -y+1/3'
   'x, z, y+2/3'
   'x+1/12, -z+1/6, y+11/12'
   '-x+1/4, z+1/6, -y+5/12'
   'z+1/4, y+3/4, -x+1/6'
   '-z+1/12, -y+7/12, x+1/6'
   'z+1/12, -y+1/2, x+1/4'
   '-z+1/4, y+5/6, -x+1/12'
   '-z+1/6, y+11/12, x+1/12'
   'z+1/6, -y+5/12, -x+1/4'
   '-z, -y+1/3, -x'
   'z, y+2/3, x'
   'x, y+5/6, z+1/6'
   '-x, -y+1/2, -z+1/6'
   '-x+1/4, -y+7/12, z'
   'x+1/12, y+3/4, -z'
   '-x+1/12, y+2/3, -z+1/12'
   'x+1/4, -y+1/3, z+1/4'
   'x+1/6, -y+5/12, -z+1/4'
   '-x+1/6, y+11/12, z+1/12'
   'z, x+1/6, y+5/6'
   '-z, -x+1/6, -y+1/2'
   'z+1/6, -x+1/12, -y+7/12'
   '-z+1/6, x+1/4, y+3/4'
   '-z+1/4, -x+1/4, y+2/3'
   'z+1/12, x+1/12, -y+1/3'
   '-z+1/12, x, -y+5/12'
   'z+1/4, -x, y+11/12'
   'y+2/3, z+1/6, x+1/6'
   '-y+1/3, -z+1/6, -x+1/6'
   '-y+5/12, z, -x+1/12'
   'y+11/12, -z, x+1/4'
   'y+5/6, -z+1/12, -x+1/4'
   '-y+1/2, z+1/4, x+1/12'
   '-y+7/12, -z+1/4, x'
   'y+3/4, z+1/12, -x'
   'y+11/12, x+1/4, -z'
   '-y+5/12, -x+1/12, z'
   '-y+1/3, -x+1/6, -z+1/6'
   'y+2/3, x+1/6, z+1/6'
   'y+3/4, -x, z+1/12'
   '-y+7/12, x, -z+1/4'
   '-y+1/2, x+1/12, z+1/4'
   'y+5/6, -x+1/4, -z+1/12'
   'x+1/4, z+1/4, -y+1/3'
   '-x+1/12, -z+1/12, y+2/3'
   '-x+1/6, z+1/12, y+11/12'
   'x+1/6, -z+1/4, -y+5/12'
   '-x, -z+1/6, -y+1/2'
   'x, z+1/6, y+5/6'
   'x+1/12, -z, y+3/4'
   '-x+1/4, z, -y+7/12'
   'z+1/4, y+11/12, -x'
   '-z+1/12, -y+5/12, x'
   'z+1/12, -y+1/3, x+1/12'
   '-z+1/4, y+2/3, -x+1/4'
   '-z+1/6, y+3/4, x+1/4'
   'z+1/6, -y+7/12, -x+1/12'
   '-z, -y+1/2, -x+1/6'
   'z, y+5/6, x+1/6'
   'x+1/6, y+2/3, z+1/6'
   '-x+1/6, -y+1/3, -z+1/6'
   '-x+1/12, -y+5/12, z'
   'x+1/4, y+11/12, -z'
   '-x+1/4, y+5/6, -z+1/12'
   'x+1/12, -y+1/2, z+1/4'
   'x, -y+7/12, -z+1/4'
   '-x, y+3/4, z+1/12'
   'z+1/6, x, y+5/6'
   '-z+1/6, -x, -y+1/2'
   'z, -x+1/4, -y+7/12'
   '-z, x+1/12, y+3/4'
   '-z+1/12, -x+1/12, y+2/3'
   'z+1/4, x+1/4, -y+1/3'
   '-z+1/4, x+1/6, -y+5/12'
   'z+1/12, -x+1/6, y+11/12'
   'y+5/6, z, x+1/6'
   '-y+1/2, -z, -x+1/6'
   '-y+7/12, z+1/6, -x+1/12'
   'y+3/4, -z+1/6, x+1/4'
   'y+2/3, -z+1/4, -x+1/4'
   '-y+1/3, z+1/12, x+1/12'
   '-y+5/12, -z+1/12, x'
   'y+11/12, z+1/4, -x'
   'y+3/4, x+1/12, -z'
   '-y+7/12, -x+1/4, z'
   '-y+1/2, -x, -z+1/6'
   'y+5/6, x, z+1/6'
   'y+11/12, -x+1/6, z+1/12'
   '-y+5/12, x+1/6, -z+1/4'
   '-y+1/3, x+1/4, z+1/4'
   'y+2/3, -x+1/12, -z+1/12'
   'x+1/12, z+1/12, -y+1/3'
   '-x+1/4, -z+1/4, y+2/3'
   '-x, z+1/4, y+11/12'
   'x, -z+1/12, -y+5/12'
   '-x+1/6, -z, -y+1/2'
   'x+1/6, z, y+5/6'
   'x+1/4, -z+1/6, y+3/4'
   '-x+1/12, z+1/6, -y+7/12'
   'z+1/12, y+3/4, -x'
   '-z+1/4, -y+7/12, x'
   'z+1/4, -y+1/2, x+1/12'
   '-z+1/12, y+5/6, -x+1/4'
   '-z, y+11/12, x+1/4'
   'z, -y+5/12, -x+1/12'
   '-z+1/6, -y+1/3, -x+1/6'
   'z+1/6, y+2/3, x+1/6'
   'x+1/6, y+5/6, z'
   '-x+1/6, -y+1/2, -z'
   '-x+1/12, -y+7/12, z+1/6'
   'x+1/4, y+3/4, -z+1/6'
   '-x+1/4, y+2/3, -z+1/4'
   'x+1/12, -y+1/3, z+1/12'
   'x, -y+5/12, -z+1/12'
   '-x, y+11/12, z+1/4'
   'z+1/6, x+1/6, y+2/3'
   '-z+1/6, -x+1/6, -y+1/3'
   'z, -x+1/12, -y+5/12'
   '-z, x+1/4, y+11/12'
   '-z+1/12, -x+1/4, y+5/6'
   'z+1/4, x+1/12, -y+1/2'
   '-z+1/4, x, -y+7/12'
   'z+1/12, -x, y+3/4'
   'y+5/6, z+1/6, x'
   '-y+1/2, -z+1/6, -x'
   '-y+7/12, z, -x+1/4'
   'y+3/4, -z, x+1/12'
   'y+2/3, -z+1/12, -x+1/12'
   '-y+1/3, z+1/4, x+1/4'
   '-y+5/12, -z+1/4, x+1/6'
   'y+11/12, z+1/12, -x+1/6'
   'y+3/4, x+1/4, -z+1/6'
   '-y+7/12, -x+1/12, z+1/6'
   '-y+1/2, -x+1/6, -z'
   'y+5/6, x+1/6, z'
   'y+11/12, -x, z+1/4'
   '-y+5/12, x, -z+1/12'
   '-y+1/3, x+1/12, z+1/12'
   'y+2/3, -x+1/4, -z+1/4'
   'x+1/12, z+1/4, -y+1/2'
   '-x+1/4, -z+1/12, y+5/6'
   '-x, z+1/12, y+3/4'
   'x, -z+1/4, -y+7/12'
   '-x+1/6, -z+1/6, -y+1/3'
   'x+1/6, z+1/6, y+2/3'
   'x+1/4, -z, y+11/12'
   '-x+1/12, z, -y+5/12'
   'z+1/12, y+11/12, -x+1/6'
   '-z+1/4, -y+5/12, x+1/6'
   'z+1/4, -y+1/3, x+1/4'
   '-z+1/12, y+2/3, -x+1/12'
   '-z, y+3/4, x+1/12'
   'z, -y+7/12, -x+1/4'
   '-z+1/6, -y+1/2, -x'
   'z+1/6, y+5/6, x'
   'x, y+2/3, z+1/3'
   '-x, -y+1/3, -z+2/3'
   '-x+1/4, -y+5/12, z+1/2'
   'x+1/12, y+11/12, -z+5/6'
   '-x+1/12, y+5/6, -z+11/12'
   'x+1/4, -y+1/2, z+5/12'
   'x+1/6, -y+7/12, -z+3/4'
   '-x+1/6, y+3/4, z+7/12'
   'z+1/3, x, y+2/3'
   '-z+2/3, -x, -y+1/3'
   'z+1/2, -x+1/4, -y+5/12'
   '-z+5/6, x+1/12, y+11/12'
   '-z+11/12, -x+1/12, y+5/6'
   'z+5/12, x+1/4, -y+1/2'
   '-z+3/4, x+1/6, -y+7/12'
   'z+7/12, -x+1/6, y+3/4'
   'y+2/3, z+1/3, x'
   '-y+1/3, -z+2/3, -x'
   '-y+5/12, z+1/2, -x+1/4'
   'y+11/12, -z+5/6, x+1/12'
   'y+5/6, -z+11/12, -x+1/12'
   '-y+1/2, z+5/12, x+1/4'
   '-y+7/12, -z+3/4, x+1/6'
   'y+3/4, z+7/12, -x+1/6'
   'y+11/12, x+1/12, -z+5/6'
   '-y+5/12, -x+1/4, z+1/2'
   '-y+1/3, -x, -z+2/3'
   'y+2/3, x, z+1/3'
   'y+3/4, -x+1/6, z+7/12'
   '-y+7/12, x+1/6, -z+3/4'
   '-y+1/2, x+1/4, z+5/12'
   'y+5/6, -x+1/12, -z+11/12'
   'x+1/4, z+5/12, -y+1/2'
   '-x+1/12, -z+11/12, y+5/6'
   '-x+1/6, z+7/12, y+3/4'
   'x+1/6, -z+3/4, -y+7/12'
   '-x, -z+2/3, -y+1/3'
   'x, z+1/3, y+2/3'
   'x+1/12, -z+5/6, y+11/12'
   '-x+1/4, z+1/2, -y+5/12'
   'z+7/12, y+3/4, -x+1/6'
   '-z+3/4, -y+7/12, x+1/6'
   'z+5/12, -y+1/2, x+1/4'
   '-z+11/12, y+5/6, -x+1/12'
   '-z+5/6, y+11/12, x+1/12'
   'z+1/2, -y+5/12, -x+1/4'
   '-z+2/3, -y+1/3, -x'
   'z+1/3, y+2/3, x'
   'x, y+5/6, z+1/2'
   '-x, -y+1/2, -z+5/6'
   '-x+1/4, -y+7/12, z+1/3'
   'x+1/12, y+3/4, -z+2/3'
   '-x+1/12, y+2/3, -z+3/4'
   'x+1/4, -y+1/3, z+7/12'
   'x+1/6, -y+5/12, -z+11/12'
   '-x+1/6, y+11/12, z+5/12'
   'z+1/3, x+1/6, y+5/6'
   '-z+2/3, -x+1/6, -y+1/2'
   'z+1/2, -x+1/12, -y+7/12'
   '-z+5/6, x+1/4, y+3/4'
   '-z+11/12, -x+1/4, y+2/3'
   'z+5/12, x+1/12, -y+1/3'
   '-z+3/4, x, -y+5/12'
   'z+7/12, -x, y+11/12'
   'y+2/3, z+1/2, x+1/6'
   '-y+1/3, -z+5/6, -x+1/6'
   '-y+5/12, z+1/3, -x+1/12'
   'y+11/12, -z+2/3, x+1/4'
   'y+5/6, -z+3/4, -x+1/4'
   '-y+1/2, z+7/12, x+1/12'
   '-y+7/12, -z+11/12, x'
   'y+3/4, z+5/12, -x'
   'y+11/12, x+1/4, -z+2/3'
   '-y+5/12, -x+1/12, z+1/3'
   '-y+1/3, -x+1/6, -z+5/6'
   'y+2/3, x+1/6, z+1/2'
   'y+3/4, -x, z+5/12'
   '-y+7/12, x, -z+11/12'
   '-y+1/2, x+1/12, z+7/12'
   'y+5/6, -x+1/4, -z+3/4'
   'x+1/4, z+7/12, -y+1/3'
   '-x+1/12, -z+3/4, y+2/3'
   '-x+1/6, z+5/12, y+11/12'
   'x+1/6, -z+11/12, -y+5/12'
   '-x, -z+5/6, -y+1/2'
   'x, z+1/2, y+5/6'
   'x+1/12, -z+2/3, y+3/4'
   '-x+1/4, z+1/3, -y+7/12'
   'z+7/12, y+11/12, -x'
   '-z+3/4, -y+5/12, x'
   'z+5/12, -y+1/3, x+1/12'
   '-z+11/12, y+2/3, -x+1/4'
   '-z+5/6, y+3/4, x+1/4'
   'z+1/2, -y+7/12, -x+1/12'
   '-z+2/3, -y+1/2, -x+1/6'
   'z+1/3, y+5/6, x+1/6'
   'x+1/6, y+2/3, z+1/2'
   '-x+1/6, -y+1/3, -z+5/6'
   '-x+1/12, -y+5/12, z+1/3'
   'x+1/4, y+11/12, -z+2/3'
   '-x+1/4, y+5/6, -z+3/4'
   'x+1/12, -y+1/2, z+7/12'
   'x, -y+7/12, -z+11/12'
   '-x, y+3/4, z+5/12'
   'z+1/2, x, y+5/6'
   '-z+5/6, -x, -y+1/2'
   'z+1/3, -x+1/4, -y+7/12'
   '-z+2/3, x+1/12, y+3/4'
   '-z+3/4, -x+1/12, y+2/3'
   'z+7/12, x+1/4, -y+1/3'
   '-z+11/12, x+1/6, -y+5/12'
   'z+5/12, -x+1/6, y+11/12'
   'y+5/6, z+1/3, x+1/6'
   '-y+1/2, -z+2/3, -x+1/6'
   '-y+7/12, z+1/2, -x+1/12'
   'y+3/4, -z+5/6, x+1/4'
   'y+2/3, -z+11/12, -x+1/4'
   '-y+1/3, z+5/12, x+1/12'
   '-y+5/12, -z+3/4, x'
   'y+11/12, z+7/12, -x'
   'y+3/4, x+1/12, -z+2/3'
   '-y+7/12, -x+1/4, z+1/3'
   '-y+1/2, -x, -z+5/6'
   'y+5/6, x, z+1/2'
   'y+11/12, -x+1/6, z+5/12'
   '-y+5/12, x+1/6, -z+11/12'
   '-y+1/3, x+1/4, z+7/12'
   'y+2/3, -x+1/12, -z+3/4'
   'x+1/12, z+5/12, -y+1/3'
   '-x+1/4, -z+11/12, y+2/3'
   '-x, z+7/12, y+11/12'
   'x, -z+3/4, -y+5/12'
   '-x+1/6, -z+2/3, -y+1/2'
   'x+1/6, z+1/3, y+5/6'
   'x+1/4, -z+5/6, y+3/4'
   '-x+1/12, z+1/2, -y+7/12'
   'z+5/12, y+3/4, -x'
   '-z+11/12, -y+7/12, x'
   'z+7/12, -y+1/2, x+1/12'
   '-z+3/4, y+5/6, -x+1/4'
   '-z+2/3, y+11/12, x+1/4'
   'z+1/3, -y+5/12, -x+1/12'
   '-z+5/6, -y+1/3, -x+1/6'
   'z+1/2, y+2/3, x+1/6'
   'x+1/6, y+5/6, z+1/3'
   '-x+1/6, -y+1/2, -z+2/3'
   '-x+1/12, -y+7/12, z+1/2'
   'x+1/4, y+3/4, -z+5/6'
   '-x+1/4, y+2/3, -z+11/12'
   'x+1/12, -y+1/3, z+5/12'
   'x, -y+5/12, -z+3/4'
   '-x, y+11/12, z+7/12'
   'z+1/2, x+1/6, y+2/3'
   '-z+5/6, -x+1/6, -y+1/3'
   'z+1/3, -x+1/12, -y+5/12'
   '-z+2/3, x+1/4, y+11/12'
   '-z+3/4, -x+1/4, y+5/6'
   'z+7/12, x+1/12, -y+1/2'
   '-z+11/12, x, -y+7/12'
   'z+5/12, -x, y+3/4'
   'y+5/6, z+1/2, x'
   '-y+1/2, -z+5/6, -x'
   '-y+7/12, z+1/3, -x+1/4'
   'y+3/4, -z+2/3, x+1/12'
   'y+2/3, -z+3/4, -x+1/12'
   '-y+1/3, z+7/12, x+1/4'
   '-y+5/12, -z+11/12, x+1/6'
   'y+11/12, z+5/12, -x+1/6'
   'y+3/4, x+1/4, -z+5/6'
   '-y+7/12, -x+1/12, z+1/2'
   '-y+1/2, -x+1/6, -z+2/3'
   'y+5/6, x+1/6, z+1/3'
   'y+11/12, -x, z+7/12'
   '-y+5/12, x, -z+3/4'
   '-y+1/3, x+1/12, z+5/12'
   'y+2/3, -x+1/4, -z+11/12'
   'x+1/12, z+7/12, -y+1/2'
   '-x+1/4, -z+3/4, y+5/6'
   '-x, z+5/12, y+3/4'
   'x, -z+11/12, -y+7/12'
   '-x+1/6, -z+5/6, -y+1/3'
   'x+1/6, z+1/2, y+2/3'
   'x+1/4, -z+2/3, y+11/12'
   '-x+1/12, z+1/3, -y+5/12'
   'z+5/12, y+11/12, -x+1/6'
   '-z+11/12, -y+5/12, x+1/6'
   'z+7/12, -y+1/3, x+1/4'
   '-z+3/4, y+2/3, -x+1/12'
   '-z+2/3, y+3/4, x+1/12'
   'z+1/3, -y+7/12, -x+1/4'
   '-z+5/6, -y+1/2, -x'
   'z+1/2, y+5/6, x'
   'x, y+2/3, z+2/3'
   '-x, -y+1/3, -z+1/3'
   '-x+1/4, -y+5/12, z+5/6'
   'x+1/12, y+11/12, -z+1/2'
   '-x+1/12, y+5/6, -z+7/12'
   'x+1/4, -y+1/2, z+3/4'
   'x+1/6, -y+7/12, -z+5/12'
   '-x+1/6, y+3/4, z+11/12'
   'z+2/3, x, y+2/3'
   '-z+1/3, -x, -y+1/3'
   'z+5/6, -x+1/4, -y+5/12'
   '-z+1/2, x+1/12, y+11/12'
   '-z+7/12, -x+1/12, y+5/6'
   'z+3/4, x+1/4, -y+1/2'
   '-z+5/12, x+1/6, -y+7/12'
   'z+11/12, -x+1/6, y+3/4'
   'y+2/3, z+2/3, x'
   '-y+1/3, -z+1/3, -x'
   '-y+5/12, z+5/6, -x+1/4'
   'y+11/12, -z+1/2, x+1/12'
   'y+5/6, -z+7/12, -x+1/12'
   '-y+1/2, z+3/4, x+1/4'
   '-y+7/12, -z+5/12, x+1/6'
   'y+3/4, z+11/12, -x+1/6'
   'y+11/12, x+1/12, -z+1/2'
   '-y+5/12, -x+1/4, z+5/6'
   '-y+1/3, -x, -z+1/3'
   'y+2/3, x, z+2/3'
   'y+3/4, -x+1/6, z+11/12'
   '-y+7/12, x+1/6, -z+5/12'
   '-y+1/2, x+1/4, z+3/4'
   'y+5/6, -x+1/12, -z+7/12'
   'x+1/4, z+3/4, -y+1/2'
   '-x+1/12, -z+7/12, y+5/6'
   '-x+1/6, z+11/12, y+3/4'
   'x+1/6, -z+5/12, -y+7/12'
   '-x, -z+1/3, -y+1/3'
   'x, z+2/3, y+2/3'
   'x+1/12, -z+1/2, y+11/12'
   '-x+1/4, z+5/6, -y+5/12'
   'z+11/12, y+3/4, -x+1/6'
   '-z+5/12, -y+7/12, x+1/6'
   'z+3/4, -y+1/2, x+1/4'
   '-z+7/12, y+5/6, -x+1/12'
   '-z+1/2, y+11/12, x+1/12'
   'z+5/6, -y+5/12, -x+1/4'
   '-z+1/3, -y+1/3, -x'
   'z+2/3, y+2/3, x'
   'x, y+5/6, z+5/6'
   '-x, -y+1/2, -z+1/2'
   '-x+1/4, -y+7/12, z+2/3'
   'x+1/12, y+3/4, -z+1/3'
   '-x+1/12, y+2/3, -z+5/12'
   'x+1/4, -y+1/3, z+11/12'
   'x+1/6, -y+5/12, -z+7/12'
   '-x+1/6, y+11/12, z+3/4'
   'z+2/3, x+1/6, y+5/6'
   '-z+1/3, -x+1/6, -y+1/2'
   'z+5/6, -x+1/12, -y+7/12'
   '-z+1/2, x+1/4, y+3/4'
   '-z+7/12, -x+1/4, y+2/3'
   'z+3/4, x+1/12, -y+1/3'
   '-z+5/12, x, -y+5/12'
   'z+11/12, -x, y+11/12'
   'y+2/3, z+5/6, x+1/6'
   '-y+1/3, -z+1/2, -x+1/6'
   '-y+5/12, z+2/3, -x+1/12'
   'y+11/12, -z+1/3, x+1/4'
   'y+5/6, -z+5/12, -x+1/4'
   '-y+1/2, z+11/12, x+1/12'
   '-y+7/12, -z+7/12, x'
   'y+3/4, z+3/4, -x'
   'y+11/12, x+1/4, -z+1/3'
   '-y+5/12, -x+1/12, z+2/3'
   '-y+1/3, -x+1/6, -z+1/2'
   'y+2/3, x+1/6, z+5/6'
   'y+3/4, -x, z+3/4'
   '-y+7/12, x, -z+7/12'
   '-y+1/2, x+1/12, z+11/12'
   'y+5/6, -x+1/4, -z+5/12'
   'x+1/4, z+11/12, -y+1/3'
   '-x+1/12, -z+5/12, y+2/3'
   '-x+1/6, z+3/4, y+11/12'
   'x+1/6, -z+7/12, -y+5/12'
   '-x, -z+1/2, -y+1/2'
   'x, z+5/6, y+5/6'
   'x+1/12, -z+1/3, y+3/4'
   '-x+1/4, z+2/3, -y+7/12'
   'z+11/12, y+11/12, -x'
   '-z+5/12, -y+5/12, x'
   'z+3/4, -y+1/3, x+1/12'
   '-z+7/12, y+2/3, -x+1/4'
   '-z+1/2, y+3/4, x+1/4'
   'z+5/6, -y+7/12, -x+1/12'
   '-z+1/3, -y+1/2, -x+1/6'
   'z+2/3, y+5/6, x+1/6'
   'x+1/6, y+2/3, z+5/6'
   '-x+1/6, -y+1/3, -z+1/2'
   '-x+1/12, -y+5/12, z+2/3'
   'x+1/4, y+11/12, -z+1/3'
   '-x+1/4, y+5/6, -z+5/12'
   'x+1/12, -y+1/2, z+11/12'
   'x, -y+7/12, -z+7/12'
   '-x, y+3/4, z+3/4'
   'z+5/6, x, y+5/6'
   '-z+1/2, -x, -y+1/2'
   'z+2/3, -x+1/4, -y+7/12'
   '-z+1/3, x+1/12, y+3/4'
   '-z+5/12, -x+1/12, y+2/3'
   'z+11/12, x+1/4, -y+1/3'
   '-z+7/12, x+1/6, -y+5/12'
   'z+3/4, -x+1/6, y+11/12'
   'y+5/6, z+2/3, x+1/6'
   '-y+1/2, -z+1/3, -x+1/6'
   '-y+7/12, z+5/6, -x+1/12'
   'y+3/4, -z+1/2, x+1/4'
   'y+2/3, -z+7/12, -x+1/4'
   '-y+1/3, z+3/4, x+1/12'
   '-y+5/12, -z+5/12, x'
   'y+11/12, z+11/12, -x'
   'y+3/4, x+1/12, -z+1/3'
   '-y+7/12, -x+1/4, z+2/3'
   '-y+1/2, -x, -z+1/2'
   'y+5/6, x, z+5/6'
   'y+11/12, -x+1/6, z+3/4'
   '-y+5/12, x+1/6, -z+7/12'
   '-y+1/3, x+1/4, z+11/12'
   'y+2/3, -x+1/12, -z+5/12'
   'x+1/12, z+3/4, -y+1/3'
   '-x+1/4, -z+7/12, y+2/3'
   '-x, z+11/12, y+11/12'
   'x, -z+5/12, -y+5/12'
   '-x+1/6, -z+1/3, -y+1/2'
   'x+1/6, z+2/3, y+5/6'
   'x+1/4, -z+1/2, y+3/4'
   '-x+1/12, z+5/6, -y+7/12'
   'z+3/4, y+3/4, -x'
   '-z+7/12, -y+7/12, x'
   'z+11/12, -y+1/2, x+1/12'
   '-z+5/12, y+5/6, -x+1/4'
   '-z+1/3, y+11/12, x+1/4'
   'z+2/3, -y+5/12, -x+1/12'
   '-z+1/2, -y+1/3, -x+1/6'
   'z+5/6, y+2/3, x+1/6'
   'x+1/6, y+5/6, z+2/3'
   '-x+1/6, -y+1/2, -z+1/3'
   '-x+1/12, -y+7/12, z+5/6'
   'x+1/4, y+3/4, -z+1/2'
   '-x+1/4, y+2/3, -z+7/12'
   'x+1/12, -y+1/3, z+3/4'
   'x, -y+5/12, -z+5/12'
   '-x, y+11/12, z+11/12'
   'z+5/6, x+1/6, y+2/3'
   '-z+1/2, -x+1/6, -y+1/3'
   'z+2/3, -x+1/12, -y+5/12'
   '-z+1/3, x+1/4, y+11/12'
   '-z+5/12, -x+1/4, y+5/6'
   'z+11/12, x+1/12, -y+1/2'
   '-z+7/12, x, -y+7/12'
   'z+3/4, -x, y+3/4'
   'y+5/6, z+5/6, x'
   '-y+1/2, -z+1/2, -x'
   '-y+7/12, z+2/3, -x+1/4'
   'y+3/4, -z+1/3, x+1/12'
   'y+2/3, -z+5/12, -x+1/12'
   '-y+1/3, z+11/12, x+1/4'
   '-y+5/12, -z+7/12, x+1/6'
   'y+11/12, z+3/4, -x+1/6'
   'y+3/4, x+1/4, -z+1/2'
   '-y+7/12, -x+1/12, z+5/6'
   '-y+1/2, -x+1/6, -z+1/3'
   'y+5/6, x+1/6, z+2/3'
   'y+11/12, -x, z+11/12'
   '-y+5/12, x, -z+5/12'
   '-y+1/3, x+1/12, z+3/4'
   'y+2/3, -x+1/4, -z+7/12'
   'x+1/12, z+11/12, -y+1/2'
   '-x+1/4, -z+5/12, y+5/6'
   '-x, z+3/4, y+3/4'
   'x, -z+7/12, -y+7/12'
   '-x+1/6, -z+1/2, -y+1/3'
   'x+1/6, z+5/6, y+2/3'
   'x+1/4, -z+1/3, y+11/12'
   '-x+1/12, z+2/3, -y+5/12'
   'z+3/4, y+11/12, -x+1/6'
   '-z+7/12, -y+5/12, x+1/6'
   'z+11/12, -y+1/3, x+1/4'
   '-z+5/12, y+2/3, -x+1/12'
   '-z+1/3, y+3/4, x+1/12'
   'z+2/3, -y+7/12, -x+1/4'
   '-z+1/2, -y+1/2, -x'
   'z+5/6, y+5/6, x'
   'x+1/3, y, z'
   '-x+2/3, -y, -z'
   '-x+11/12, -y+1/12, z+1/6'
   'x+5/12, y+1/4, -z+1/6'
   '-x+3/4, y+1/6, -z+1/4'
   'x+7/12, -y+1/6, z+1/12'
   'x+1/2, -y+1/4, -z+1/12'
   '-x+5/6, y+1/12, z+1/4'
   'z, x+1/3, y'
   '-z, -x+2/3, -y'
   'z+1/6, -x+11/12, -y+1/12'
   '-z+1/6, x+5/12, y+1/4'
   '-z+1/4, -x+3/4, y+1/6'
   'z+1/12, x+7/12, -y+1/6'
   '-z+1/12, x+1/2, -y+1/4'
   'z+1/4, -x+5/6, y+1/12'
   'y, z, x+1/3'
   '-y, -z, -x+2/3'
   '-y+1/12, z+1/6, -x+11/12'
   'y+1/4, -z+1/6, x+5/12'
   'y+1/6, -z+1/4, -x+3/4'
   '-y+1/6, z+1/12, x+7/12'
   '-y+1/4, -z+1/12, x+1/2'
   'y+1/12, z+1/4, -x+5/6'
   'y+1/4, x+5/12, -z+1/6'
   '-y+1/12, -x+11/12, z+1/6'
   '-y, -x+2/3, -z'
   'y, x+1/3, z'
   'y+1/12, -x+5/6, z+1/4'
   '-y+1/4, x+1/2, -z+1/12'
   '-y+1/6, x+7/12, z+1/12'
   'y+1/6, -x+3/4, -z+1/4'
   'x+7/12, z+1/12, -y+1/6'
   '-x+3/4, -z+1/4, y+1/6'
   '-x+5/6, z+1/4, y+1/12'
   'x+1/2, -z+1/12, -y+1/4'
   '-x+2/3, -z, -y'
   'x+1/3, z, y'
   'x+5/12, -z+1/6, y+1/4'
   '-x+11/12, z+1/6, -y+1/12'
   'z+1/4, y+1/12, -x+5/6'
   '-z+1/12, -y+1/4, x+1/2'
   'z+1/12, -y+1/6, x+7/12'
   '-z+1/4, y+1/6, -x+3/4'
   '-z+1/6, y+1/4, x+5/12'
   'z+1/6, -y+1/12, -x+11/12'
   '-z, -y, -x+2/3'
   'z, y, x+1/3'
   'x+1/3, y+1/6, z+1/6'
   '-x+2/3, -y+1/6, -z+1/6'
   '-x+11/12, -y+1/4, z'
   'x+5/12, y+1/12, -z'
   '-x+3/4, y, -z+1/12'
   'x+7/12, -y, z+1/4'
   'x+1/2, -y+1/12, -z+1/4'
   '-x+5/6, y+1/4, z+1/12'
   'z, x+1/2, y+1/6'
   '-z, -x+5/6, -y+1/6'
   'z+1/6, -x+3/4, -y+1/4'
   '-z+1/6, x+7/12, y+1/12'
   '-z+1/4, -x+11/12, y'
   'z+1/12, x+5/12, -y'
   '-z+1/12, x+1/3, -y+1/12'
   'z+1/4, -x+2/3, y+1/4'
   'y, z+1/6, x+1/2'
   '-y, -z+1/6, -x+5/6'
   '-y+1/12, z, -x+3/4'
   'y+1/4, -z, x+7/12'
   'y+1/6, -z+1/12, -x+11/12'
   '-y+1/6, z+1/4, x+5/12'
   '-y+1/4, -z+1/4, x+1/3'
   'y+1/12, z+1/12, -x+2/3'
   'y+1/4, x+7/12, -z'
   '-y+1/12, -x+3/4, z'
   '-y, -x+5/6, -z+1/6'
   'y, x+1/2, z+1/6'
   'y+1/12, -x+2/3, z+1/12'
   '-y+1/4, x+1/3, -z+1/4'
   '-y+1/6, x+5/12, z+1/4'
   'y+1/6, -x+11/12, -z+1/12'
   'x+7/12, z+1/4, -y'
   '-x+3/4, -z+1/12, y'
   '-x+5/6, z+1/12, y+1/4'
   'x+1/2, -z+1/4, -y+1/12'
   '-x+2/3, -z+1/6, -y+1/6'
   'x+1/3, z+1/6, y+1/6'
   'x+5/12, -z, y+1/12'
   '-x+11/12, z, -y+1/4'
   'z+1/4, y+1/4, -x+2/3'
   '-z+1/12, -y+1/12, x+1/3'
   'z+1/12, -y, x+5/12'
   '-z+1/4, y, -x+11/12'
   '-z+1/6, y+1/12, x+7/12'
   'z+1/6, -y+1/4, -x+3/4'
   '-z, -y+1/6, -x+5/6'
   'z, y+1/6, x+1/2'
   'x+1/2, y, z+1/6'
   '-x+5/6, -y, -z+1/6'
   '-x+3/4, -y+1/12, z'
   'x+7/12, y+1/4, -z'
   '-x+11/12, y+1/6, -z+1/12'
   'x+5/12, -y+1/6, z+1/4'
   'x+1/3, -y+1/4, -z+1/4'
   '-x+2/3, y+1/12, z+1/12'
   'z+1/6, x+1/3, y+1/6'
   '-z+1/6, -x+2/3, -y+1/6'
   'z, -x+11/12, -y+1/4'
   '-z, x+5/12, y+1/12'
   '-z+1/12, -x+3/4, y'
   'z+1/4, x+7/12, -y'
   '-z+1/4, x+1/2, -y+1/12'
   'z+1/12, -x+5/6, y+1/4'
   'y+1/6, z, x+1/2'
   '-y+1/6, -z, -x+5/6'
   '-y+1/4, z+1/6, -x+3/4'
   'y+1/12, -z+1/6, x+7/12'
   'y, -z+1/4, -x+11/12'
   '-y, z+1/12, x+5/12'
   '-y+1/12, -z+1/12, x+1/3'
   'y+1/4, z+1/4, -x+2/3'
   'y+1/12, x+5/12, -z'
   '-y+1/4, -x+11/12, z'
   '-y+1/6, -x+2/3, -z+1/6'
   'y+1/6, x+1/3, z+1/6'
   'y+1/4, -x+5/6, z+1/12'
   '-y+1/12, x+1/2, -z+1/4'
   '-y, x+7/12, z+1/4'
   'y, -x+3/4, -z+1/12'
   'x+5/12, z+1/12, -y'
   '-x+11/12, -z+1/4, y'
   '-x+2/3, z+1/4, y+1/4'
   'x+1/3, -z+1/12, -y+1/12'
   '-x+5/6, -z, -y+1/6'
   'x+1/2, z, y+1/6'
   'x+7/12, -z+1/6, y+1/12'
   '-x+3/4, z+1/6, -y+1/4'
   'z+1/12, y+1/12, -x+2/3'
   '-z+1/4, -y+1/4, x+1/3'
   'z+1/4, -y+1/6, x+5/12'
   '-z+1/12, y+1/6, -x+11/12'
   '-z, y+1/4, x+7/12'
   'z, -y+1/12, -x+3/4'
   '-z+1/6, -y, -x+5/6'
   'z+1/6, y, x+1/2'
   'x+1/2, y+1/6, z'
   '-x+5/6, -y+1/6, -z'
   '-x+3/4, -y+1/4, z+1/6'
   'x+7/12, y+1/12, -z+1/6'
   '-x+11/12, y, -z+1/4'
   'x+5/12, -y, z+1/12'
   'x+1/3, -y+1/12, -z+1/12'
   '-x+2/3, y+1/4, z+1/4'
   'z+1/6, x+1/2, y'
   '-z+1/6, -x+5/6, -y'
   'z, -x+3/4, -y+1/12'
   '-z, x+7/12, y+1/4'
   '-z+1/12, -x+11/12, y+1/6'
   'z+1/4, x+5/12, -y+1/6'
   '-z+1/4, x+1/3, -y+1/4'
   'z+1/12, -x+2/3, y+1/12'
   'y+1/6, z+1/6, x+1/3'
   '-y+1/6, -z+1/6, -x+2/3'
   '-y+1/4, z, -x+11/12'
   'y+1/12, -z, x+5/12'
   'y, -z+1/12, -x+3/4'
   '-y, z+1/4, x+7/12'
   '-y+1/12, -z+1/4, x+1/2'
   'y+1/4, z+1/12, -x+5/6'
   'y+1/12, x+7/12, -z+1/6'
   '-y+1/4, -x+3/4, z+1/6'
   '-y+1/6, -x+5/6, -z'
   'y+1/6, x+1/2, z'
   'y+1/4, -x+2/3, z+1/4'
   '-y+1/12, x+1/3, -z+1/12'
   '-y, x+5/12, z+1/12'
   'y, -x+11/12, -z+1/4'
   'x+5/12, z+1/4, -y+1/6'
   '-x+11/12, -z+1/12, y+1/6'
   '-x+2/3, z+1/12, y+1/12'
   'x+1/3, -z+1/4, -y+1/4'
   '-x+5/6, -z+1/6, -y'
   'x+1/2, z+1/6, y'
   'x+7/12, -z, y+1/4'
   '-x+3/4, z, -y+1/12'
   'z+1/12, y+1/4, -x+5/6'
   '-z+1/4, -y+1/12, x+1/2'
   'z+1/4, -y, x+7/12'
   '-z+1/12, y, -x+3/4'
   '-z, y+1/12, x+5/12'
   'z, -y+1/4, -x+11/12'
   '-z+1/6, -y+1/6, -x+2/3'
   'z+1/6, y+1/6, x+1/3'
   'x+1/3, y, z+1/3'
   '-x+2/3, -y, -z+2/3'
   '-x+11/12, -y+1/12, z+1/2'
   'x+5/12, y+1/4, -z+5/6'
   '-x+3/4, y+1/6, -z+11/12'
   'x+7/12, -y+1/6, z+5/12'
   'x+1/2, -y+1/4, -z+3/4'
   '-x+5/6, y+1/12, z+7/12'
   'z+1/3, x+1/3, y'
   '-z+2/3, -x+2/3, -y'
   'z+1/2, -x+11/12, -y+1/12'
   '-z+5/6, x+5/12, y+1/4'
   '-z+11/12, -x+3/4, y+1/6'
   'z+5/12, x+7/12, -y+1/6'
   '-z+3/4, x+1/2, -y+1/4'
   'z+7/12, -x+5/6, y+1/12'
   'y, z+1/3, x+1/3'
   '-y, -z+2/3, -x+2/3'
   '-y+1/12, z+1/2, -x+11/12'
   'y+1/4, -z+5/6, x+5/12'
   'y+1/6, -z+11/12, -x+3/4'
   '-y+1/6, z+5/12, x+7/12'
   '-y+1/4, -z+3/4, x+1/2'
   'y+1/12, z+7/12, -x+5/6'
   'y+1/4, x+5/12, -z+5/6'
   '-y+1/12, -x+11/12, z+1/2'
   '-y, -x+2/3, -z+2/3'
   'y, x+1/3, z+1/3'
   'y+1/12, -x+5/6, z+7/12'
   '-y+1/4, x+1/2, -z+3/4'
   '-y+1/6, x+7/12, z+5/12'
   'y+1/6, -x+3/4, -z+11/12'
   'x+7/12, z+5/12, -y+1/6'
   '-x+3/4, -z+11/12, y+1/6'
   '-x+5/6, z+7/12, y+1/12'
   'x+1/2, -z+3/4, -y+1/4'
   '-x+2/3, -z+2/3, -y'
   'x+1/3, z+1/3, y'
   'x+5/12, -z+5/6, y+1/4'
   '-x+11/12, z+1/2, -y+1/12'
   'z+7/12, y+1/12, -x+5/6'
   '-z+3/4, -y+1/4, x+1/2'
   'z+5/12, -y+1/6, x+7/12'
   '-z+11/12, y+1/6, -x+3/4'
   '-z+5/6, y+1/4, x+5/12'
   'z+1/2, -y+1/12, -x+11/12'
   '-z+2/3, -y, -x+2/3'
   'z+1/3, y, x+1/3'
   'x+1/3, y+1/6, z+1/2'
   '-x+2/3, -y+1/6, -z+5/6'
   '-x+11/12, -y+1/4, z+1/3'
   'x+5/12, y+1/12, -z+2/3'
   '-x+3/4, y, -z+3/4'
   'x+7/12, -y, z+7/12'
   'x+1/2, -y+1/12, -z+11/12'
   '-x+5/6, y+1/4, z+5/12'
   'z+1/3, x+1/2, y+1/6'
   '-z+2/3, -x+5/6, -y+1/6'
   'z+1/2, -x+3/4, -y+1/4'
   '-z+5/6, x+7/12, y+1/12'
   '-z+11/12, -x+11/12, y'
   'z+5/12, x+5/12, -y'
   '-z+3/4, x+1/3, -y+1/12'
   'z+7/12, -x+2/3, y+1/4'
   'y, z+1/2, x+1/2'
   '-y, -z+5/6, -x+5/6'
   '-y+1/12, z+1/3, -x+3/4'
   'y+1/4, -z+2/3, x+7/12'
   'y+1/6, -z+3/4, -x+11/12'
   '-y+1/6, z+7/12, x+5/12'
   '-y+1/4, -z+11/12, x+1/3'
   'y+1/12, z+5/12, -x+2/3'
   'y+1/4, x+7/12, -z+2/3'
   '-y+1/12, -x+3/4, z+1/3'
   '-y, -x+5/6, -z+5/6'
   'y, x+1/2, z+1/2'
   'y+1/12, -x+2/3, z+5/12'
   '-y+1/4, x+1/3, -z+11/12'
   '-y+1/6, x+5/12, z+7/12'
   'y+1/6, -x+11/12, -z+3/4'
   'x+7/12, z+7/12, -y'
   '-x+3/4, -z+3/4, y'
   '-x+5/6, z+5/12, y+1/4'
   'x+1/2, -z+11/12, -y+1/12'
   '-x+2/3, -z+5/6, -y+1/6'
   'x+1/3, z+1/2, y+1/6'
   'x+5/12, -z+2/3, y+1/12'
   '-x+11/12, z+1/3, -y+1/4'
   'z+7/12, y+1/4, -x+2/3'
   '-z+3/4, -y+1/12, x+1/3'
   'z+5/12, -y, x+5/12'
   '-z+11/12, y, -x+11/12'
   '-z+5/6, y+1/12, x+7/12'
   'z+1/2, -y+1/4, -x+3/4'
   '-z+2/3, -y+1/6, -x+5/6'
   'z+1/3, y+1/6, x+1/2'
   'x+1/2, y, z+1/2'
   '-x+5/6, -y, -z+5/6'
   '-x+3/4, -y+1/12, z+1/3'
   'x+7/12, y+1/4, -z+2/3'
   '-x+11/12, y+1/6, -z+3/4'
   'x+5/12, -y+1/6, z+7/12'
   'x+1/3, -y+1/4, -z+11/12'
   '-x+2/3, y+1/12, z+5/12'
   'z+1/2, x+1/3, y+1/6'
   '-z+5/6, -x+2/3, -y+1/6'
   'z+1/3, -x+11/12, -y+1/4'
   '-z+2/3, x+5/12, y+1/12'
   '-z+3/4, -x+3/4, y'
   'z+7/12, x+7/12, -y'
   '-z+11/12, x+1/2, -y+1/12'
   'z+5/12, -x+5/6, y+1/4'
   'y+1/6, z+1/3, x+1/2'
   '-y+1/6, -z+2/3, -x+5/6'
   '-y+1/4, z+1/2, -x+3/4'
   'y+1/12, -z+5/6, x+7/12'
   'y, -z+11/12, -x+11/12'
   '-y, z+5/12, x+5/12'
   '-y+1/12, -z+3/4, x+1/3'
   'y+1/4, z+7/12, -x+2/3'
   'y+1/12, x+5/12, -z+2/3'
   '-y+1/4, -x+11/12, z+1/3'
   '-y+1/6, -x+2/3, -z+5/6'
   'y+1/6, x+1/3, z+1/2'
   'y+1/4, -x+5/6, z+5/12'
   '-y+1/12, x+1/2, -z+11/12'
   '-y, x+7/12, z+7/12'
   'y, -x+3/4, -z+3/4'
   'x+5/12, z+5/12, -y'
   '-x+11/12, -z+11/12, y'
   '-x+2/3, z+7/12, y+1/4'
   'x+1/3, -z+3/4, -y+1/12'
   '-x+5/6, -z+2/3, -y+1/6'
   'x+1/2, z+1/3, y+1/6'
   'x+7/12, -z+5/6, y+1/12'
   '-x+3/4, z+1/2, -y+1/4'
   'z+5/12, y+1/12, -x+2/3'
   '-z+11/12, -y+1/4, x+1/3'
   'z+7/12, -y+1/6, x+5/12'
   '-z+3/4, y+1/6, -x+11/12'
   '-z+2/3, y+1/4, x+7/12'
   'z+1/3, -y+1/12, -x+3/4'
   '-z+5/6, -y, -x+5/6'
   'z+1/2, y, x+1/2'
   'x+1/2, y+1/6, z+1/3'
   '-x+5/6, -y+1/6, -z+2/3'
   '-x+3/4, -y+1/4, z+1/2'
   'x+7/12, y+1/12, -z+5/6'
   '-x+11/12, y, -z+11/12'
   'x+5/12, -y, z+5/12'
   'x+1/3, -y+1/12, -z+3/4'
   '-x+2/3, y+1/4, z+7/12'
   'z+1/2, x+1/2, y'
   '-z+5/6, -x+5/6, -y'
   'z+1/3, -x+3/4, -y+1/12'
   '-z+2/3, x+7/12, y+1/4'
   '-z+3/4, -x+11/12, y+1/6'
   'z+7/12, x+5/12, -y+1/6'
   '-z+11/12, x+1/3, -y+1/4'
   'z+5/12, -x+2/3, y+1/12'
   'y+1/6, z+1/2, x+1/3'
   '-y+1/6, -z+5/6, -x+2/3'
   '-y+1/4, z+1/3, -x+11/12'
   'y+1/12, -z+2/3, x+5/12'
   'y, -z+3/4, -x+3/4'
   '-y, z+7/12, x+7/12'
   '-y+1/12, -z+11/12, x+1/2'
   'y+1/4, z+5/12, -x+5/6'
   'y+1/12, x+7/12, -z+5/6'
   '-y+1/4, -x+3/4, z+1/2'
   '-y+1/6, -x+5/6, -z+2/3'
   'y+1/6, x+1/2, z+1/3'
   'y+1/4, -x+2/3, z+7/12'
   '-y+1/12, x+1/3, -z+3/4'
   '-y, x+5/12, z+5/12'
   'y, -x+11/12, -z+11/12'
   'x+5/12, z+7/12, -y+1/6'
   '-x+11/12, -z+3/4, y+1/6'
   '-x+2/3, z+5/12, y+1/12'
   'x+1/3, -z+11/12, -y+1/4'
   '-x+5/6, -z+5/6, -y'
   'x+1/2, z+1/2, y'
   'x+7/12, -z+2/3, y+1/4'
   '-x+3/4, z+1/3, -y+1/12'
   'z+5/12, y+1/4, -x+5/6'
   '-z+11/12, -y+1/12, x+1/2'
   'z+7/12, -y, x+7/12'
   '-z+3/4, y, -x+3/4'
   '-z+2/3, y+1/12, x+5/12'
   'z+1/3, -y+1/4, -x+11/12'
   '-z+5/6, -y+1/6, -x+2/3'
   'z+1/2, y+1/6, x+1/3'
   'x+1/3, y, z+2/3'
   '-x+2/3, -y, -z+1/3'
   '-x+11/12, -y+1/12, z+5/6'
   'x+5/12, y+1/4, -z+1/2'
   '-x+3/4, y+1/6, -z+7/12'
   'x+7/12, -y+1/6, z+3/4'
   'x+1/2, -y+1/4, -z+5/12'
   '-x+5/6, y+1/12, z+11/12'
   'z+2/3, x+1/3, y'
   '-z+1/3, -x+2/3, -y'
   'z+5/6, -x+11/12, -y+1/12'
   '-z+1/2, x+5/12, y+1/4'
   '-z+7/12, -x+3/4, y+1/6'
   'z+3/4, x+7/12, -y+1/6'
   '-z+5/12, x+1/2, -y+1/4'
   'z+11/12, -x+5/6, y+1/12'
   'y, z+2/3, x+1/3'
   '-y, -z+1/3, -x+2/3'
   '-y+1/12, z+5/6, -x+11/12'
   'y+1/4, -z+1/2, x+5/12'
   'y+1/6, -z+7/12, -x+3/4'
   '-y+1/6, z+3/4, x+7/12'
   '-y+1/4, -z+5/12, x+1/2'
   'y+1/12, z+11/12, -x+5/6'
   'y+1/4, x+5/12, -z+1/2'
   '-y+1/12, -x+11/12, z+5/6'
   '-y, -x+2/3, -z+1/3'
   'y, x+1/3, z+2/3'
   'y+1/12, -x+5/6, z+11/12'
   '-y+1/4, x+1/2, -z+5/12'
   '-y+1/6, x+7/12, z+3/4'
   'y+1/6, -x+3/4, -z+7/12'
   'x+7/12, z+3/4, -y+1/6'
   '-x+3/4, -z+7/12, y+1/6'
   '-x+5/6, z+11/12, y+1/12'
   'x+1/2, -z+5/12, -y+1/4'
   '-x+2/3, -z+1/3, -y'
   'x+1/3, z+2/3, y'
   'x+5/12, -z+1/2, y+1/4'
   '-x+11/12, z+5/6, -y+1/12'
   'z+11/12, y+1/12, -x+5/6'
   '-z+5/12, -y+1/4, x+1/2'
   'z+3/4, -y+1/6, x+7/12'
   '-z+7/12, y+1/6, -x+3/4'
   '-z+1/2, y+1/4, x+5/12'
   'z+5/6, -y+1/12, -x+11/12'
   '-z+1/3, -y, -x+2/3'
   'z+2/3, y, x+1/3'
   'x+1/3, y+1/6, z+5/6'
   '-x+2/3, -y+1/6, -z+1/2'
   '-x+11/12, -y+1/4, z+2/3'
   'x+5/12, y+1/12, -z+1/3'
   '-x+3/4, y, -z+5/12'
   'x+7/12, -y, z+11/12'
   'x+1/2, -y+1/12, -z+7/12'
   '-x+5/6, y+1/4, z+3/4'
   'z+2/3, x+1/2, y+1/6'
   '-z+1/3, -x+5/6, -y+1/6'
   'z+5/6, -x+3/4, -y+1/4'
   '-z+1/2, x+7/12, y+1/12'
   '-z+7/12, -x+11/12, y'
   'z+3/4, x+5/12, -y'
   '-z+5/12, x+1/3, -y+1/12'
   'z+11/12, -x+2/3, y+1/4'
   'y, z+5/6, x+1/2'
   '-y, -z+1/2, -x+5/6'
   '-y+1/12, z+2/3, -x+3/4'
   'y+1/4, -z+1/3, x+7/12'
   'y+1/6, -z+5/12, -x+11/12'
   '-y+1/6, z+11/12, x+5/12'
   '-y+1/4, -z+7/12, x+1/3'
   'y+1/12, z+3/4, -x+2/3'
   'y+1/4, x+7/12, -z+1/3'
   '-y+1/12, -x+3/4, z+2/3'
   '-y, -x+5/6, -z+1/2'
   'y, x+1/2, z+5/6'
   'y+1/12, -x+2/3, z+3/4'
   '-y+1/4, x+1/3, -z+7/12'
   '-y+1/6, x+5/12, z+11/12'
   'y+1/6, -x+11/12, -z+5/12'
   'x+7/12, z+11/12, -y'
   '-x+3/4, -z+5/12, y'
   '-x+5/6, z+3/4, y+1/4'
   'x+1/2, -z+7/12, -y+1/12'
   '-x+2/3, -z+1/2, -y+1/6'
   'x+1/3, z+5/6, y+1/6'
   'x+5/12, -z+1/3, y+1/12'
   '-x+11/12, z+2/3, -y+1/4'
   'z+11/12, y+1/4, -x+2/3'
   '-z+5/12, -y+1/12, x+1/3'
   'z+3/4, -y, x+5/12'
   '-z+7/12, y, -x+11/12'
   '-z+1/2, y+1/12, x+7/12'
   'z+5/6, -y+1/4, -x+3/4'
   '-z+1/3, -y+1/6, -x+5/6'
   'z+2/3, y+1/6, x+1/2'
   'x+1/2, y, z+5/6'
   '-x+5/6, -y, -z+1/2'
   '-x+3/4, -y+1/12, z+2/3'
   'x+7/12, y+1/4, -z+1/3'
   '-x+11/12, y+1/6, -z+5/12'
   'x+5/12, -y+1/6, z+11/12'
   'x+1/3, -y+1/4, -z+7/12'
   '-x+2/3, y+1/12, z+3/4'
   'z+5/6, x+1/3, y+1/6'
   '-z+1/2, -x+2/3, -y+1/6'
   'z+2/3, -x+11/12, -y+1/4'
   '-z+1/3, x+5/12, y+1/12'
   '-z+5/12, -x+3/4, y'
   'z+11/12, x+7/12, -y'
   '-z+7/12, x+1/2, -y+1/12'
   'z+3/4, -x+5/6, y+1/4'
   'y+1/6, z+2/3, x+1/2'
   '-y+1/6, -z+1/3, -x+5/6'
   '-y+1/4, z+5/6, -x+3/4'
   'y+1/12, -z+1/2, x+7/12'
   'y, -z+7/12, -x+11/12'
   '-y, z+3/4, x+5/12'
   '-y+1/12, -z+5/12, x+1/3'
   'y+1/4, z+11/12, -x+2/3'
   'y+1/12, x+5/12, -z+1/3'
   '-y+1/4, -x+11/12, z+2/3'
   '-y+1/6, -x+2/3, -z+1/2'
   'y+1/6, x+1/3, z+5/6'
   'y+1/4, -x+5/6, z+3/4'
   '-y+1/12, x+1/2, -z+7/12'
   '-y, x+7/12, z+11/12'
   'y, -x+3/4, -z+5/12'
   'x+5/12, z+3/4, -y'
   '-x+11/12, -z+7/12, y'
   '-x+2/3, z+11/12, y+1/4'
   'x+1/3, -z+5/12, -y+1/12'
   '-x+5/6, -z+1/3, -y+1/6'
   'x+1/2, z+2/3, y+1/6'
   'x+7/12, -z+1/2, y+1/12'
   '-x+3/4, z+5/6, -y+1/4'
   'z+3/4, y+1/12, -x+2/3'
   '-z+7/12, -y+1/4, x+1/3'
   'z+11/12, -y+1/6, x+5/12'
   '-z+5/12, y+1/6, -x+11/12'
   '-z+1/3, y+1/4, x+7/12'
   'z+2/3, -y+1/12, -x+3/4'
   '-z+1/2, -y, -x+5/6'
   'z+5/6, y, x+1/2'
   'x+1/2, y+1/6, z+2/3'
   '-x+5/6, -y+1/6, -z+1/3'
   '-x+3/4, -y+1/4, z+5/6'
   'x+7/12, y+1/12, -z+1/2'
   '-x+11/12, y, -z+7/12'
   'x+5/12, -y, z+3/4'
   'x+1/3, -y+1/12, -z+5/12'
   '-x+2/3, y+1/4, z+11/12'
   'z+5/6, x+1/2, y'
   '-z+1/2, -x+5/6, -y'
   'z+2/3, -x+3/4, -y+1/12'
   '-z+1/3, x+7/12, y+1/4'
   '-z+5/12, -x+11/12, y+1/6'
   'z+11/12, x+5/12, -y+1/6'
   '-z+7/12, x+1/3, -y+1/4'
   'z+3/4, -x+2/3, y+1/12'
   'y+1/6, z+5/6, x+1/3'
   '-y+1/6, -z+1/2, -x+2/3'
   '-y+1/4, z+2/3, -x+11/12'
   'y+1/12, -z+1/3, x+5/12'
   'y, -z+5/12, -x+3/4'
   '-y, z+11/12, x+7/12'
   '-y+1/12, -z+7/12, x+1/2'
   'y+1/4, z+3/4, -x+5/6'
   'y+1/12, x+7/12, -z+1/2'
   '-y+1/4, -x+3/4, z+5/6'
   '-y+1/6, -x+5/6, -z+1/3'
   'y+1/6, x+1/2, z+2/3'
   'y+1/4, -x+2/3, z+11/12'
   '-y+1/12, x+1/3, -z+5/12'
   '-y, x+5/12, z+3/4'
   'y, -x+11/12, -z+7/12'
   'x+5/12, z+11/12, -y+1/6'
   '-x+11/12, -z+5/12, y+1/6'
   '-x+2/3, z+3/4, y+1/12'
   'x+1/3, -z+7/12, -y+1/4'
   '-x+5/6, -z+1/2, -y'
   'x+1/2, z+5/6, y'
   'x+7/12, -z+1/3, y+1/4'
   '-x+3/4, z+2/3, -y+1/12'
   'z+3/4, y+1/4, -x+5/6'
   '-z+7/12, -y+1/12, x+1/2'
   'z+11/12, -y, x+7/12'
   '-z+5/12, y, -x+3/4'
   '-z+1/3, y+1/12, x+5/12'
   'z+2/3, -y+1/4, -x+11/12'
   '-z+1/2, -y+1/6, -x+2/3'
   'z+5/6, y+1/6, x+1/3'
   'x+1/3, y+1/3, z'
   '-x+2/3, -y+2/3, -z'
   '-x+11/12, -y+3/4, z+1/6'
   'x+5/12, y+7/12, -z+1/6'
   '-x+3/4, y+1/2, -z+1/4'
   'x+7/12, -y+5/6, z+1/12'
   'x+1/2, -y+11/12, -z+1/12'
   '-x+5/6, y+5/12, z+1/4'
   'z, x+1/3, y+1/3'
   '-z, -x+2/3, -y+2/3'
   'z+1/6, -x+11/12, -y+3/4'
   '-z+1/6, x+5/12, y+7/12'
   '-z+1/4, -x+3/4, y+1/2'
   'z+1/12, x+7/12, -y+5/6'
   '-z+1/12, x+1/2, -y+11/12'
   'z+1/4, -x+5/6, y+5/12'
   'y+1/3, z, x+1/3'
   '-y+2/3, -z, -x+2/3'
   '-y+3/4, z+1/6, -x+11/12'
   'y+7/12, -z+1/6, x+5/12'
   'y+1/2, -z+1/4, -x+3/4'
   '-y+5/6, z+1/12, x+7/12'
   '-y+11/12, -z+1/12, x+1/2'
   'y+5/12, z+1/4, -x+5/6'
   'y+7/12, x+5/12, -z+1/6'
   '-y+3/4, -x+11/12, z+1/6'
   '-y+2/3, -x+2/3, -z'
   'y+1/3, x+1/3, z'
   'y+5/12, -x+5/6, z+1/4'
   '-y+11/12, x+1/2, -z+1/12'
   '-y+5/6, x+7/12, z+1/12'
   'y+1/2, -x+3/4, -z+1/4'
   'x+7/12, z+1/12, -y+5/6'
   '-x+3/4, -z+1/4, y+1/2'
   '-x+5/6, z+1/4, y+5/12'
   'x+1/2, -z+1/12, -y+11/12'
   '-x+2/3, -z, -y+2/3'
   'x+1/3, z, y+1/3'
   'x+5/12, -z+1/6, y+7/12'
   '-x+11/12, z+1/6, -y+3/4'
   'z+1/4, y+5/12, -x+5/6'
   '-z+1/12, -y+11/12, x+1/2'
   'z+1/12, -y+5/6, x+7/12'
   '-z+1/4, y+1/2, -x+3/4'
   '-z+1/6, y+7/12, x+5/12'
   'z+1/6, -y+3/4, -x+11/12'
   '-z, -y+2/3, -x+2/3'
   'z, y+1/3, x+1/3'
   'x+1/3, y+1/2, z+1/6'
   '-x+2/3, -y+5/6, -z+1/6'
   '-x+11/12, -y+11/12, z'
   'x+5/12, y+5/12, -z'
   '-x+3/4, y+1/3, -z+1/12'
   'x+7/12, -y+2/3, z+1/4'
   'x+1/2, -y+3/4, -z+1/4'
   '-x+5/6, y+7/12, z+1/12'
   'z, x+1/2, y+1/2'
   '-z, -x+5/6, -y+5/6'
   'z+1/6, -x+3/4, -y+11/12'
   '-z+1/6, x+7/12, y+5/12'
   '-z+1/4, -x+11/12, y+1/3'
   'z+1/12, x+5/12, -y+2/3'
   '-z+1/12, x+1/3, -y+3/4'
   'z+1/4, -x+2/3, y+7/12'
   'y+1/3, z+1/6, x+1/2'
   '-y+2/3, -z+1/6, -x+5/6'
   '-y+3/4, z, -x+3/4'
   'y+7/12, -z, x+7/12'
   'y+1/2, -z+1/12, -x+11/12'
   '-y+5/6, z+1/4, x+5/12'
   '-y+11/12, -z+1/4, x+1/3'
   'y+5/12, z+1/12, -x+2/3'
   'y+7/12, x+7/12, -z'
   '-y+3/4, -x+3/4, z'
   '-y+2/3, -x+5/6, -z+1/6'
   'y+1/3, x+1/2, z+1/6'
   'y+5/12, -x+2/3, z+1/12'
   '-y+11/12, x+1/3, -z+1/4'
   '-y+5/6, x+5/12, z+1/4'
   'y+1/2, -x+11/12, -z+1/12'
   'x+7/12, z+1/4, -y+2/3'
   '-x+3/4, -z+1/12, y+1/3'
   '-x+5/6, z+1/12, y+7/12'
   'x+1/2, -z+1/4, -y+3/4'
   '-x+2/3, -z+1/6, -y+5/6'
   'x+1/3, z+1/6, y+1/2'
   'x+5/12, -z, y+5/12'
   '-x+11/12, z, -y+11/12'
   'z+1/4, y+7/12, -x+2/3'
   '-z+1/12, -y+3/4, x+1/3'
   'z+1/12, -y+2/3, x+5/12'
   '-z+1/4, y+1/3, -x+11/12'
   '-z+1/6, y+5/12, x+7/12'
   'z+1/6, -y+11/12, -x+3/4'
   '-z, -y+5/6, -x+5/6'
   'z, y+1/2, x+1/2'
   'x+1/2, y+1/3, z+1/6'
   '-x+5/6, -y+2/3, -z+1/6'
   '-x+3/4, -y+3/4, z'
   'x+7/12, y+7/12, -z'
   '-x+11/12, y+1/2, -z+1/12'
   'x+5/12, -y+5/6, z+1/4'
   'x+1/3, -y+11/12, -z+1/4'
   '-x+2/3, y+5/12, z+1/12'
   'z+1/6, x+1/3, y+1/2'
   '-z+1/6, -x+2/3, -y+5/6'
   'z, -x+11/12, -y+11/12'
   '-z, x+5/12, y+5/12'
   '-z+1/12, -x+3/4, y+1/3'
   'z+1/4, x+7/12, -y+2/3'
   '-z+1/4, x+1/2, -y+3/4'
   'z+1/12, -x+5/6, y+7/12'
   'y+1/2, z, x+1/2'
   '-y+5/6, -z, -x+5/6'
   '-y+11/12, z+1/6, -x+3/4'
   'y+5/12, -z+1/6, x+7/12'
   'y+1/3, -z+1/4, -x+11/12'
   '-y+2/3, z+1/12, x+5/12'
   '-y+3/4, -z+1/12, x+1/3'
   'y+7/12, z+1/4, -x+2/3'
   'y+5/12, x+5/12, -z'
   '-y+11/12, -x+11/12, z'
   '-y+5/6, -x+2/3, -z+1/6'
   'y+1/2, x+1/3, z+1/6'
   'y+7/12, -x+5/6, z+1/12'
   '-y+3/4, x+1/2, -z+1/4'
   '-y+2/3, x+7/12, z+1/4'
   'y+1/3, -x+3/4, -z+1/12'
   'x+5/12, z+1/12, -y+2/3'
   '-x+11/12, -z+1/4, y+1/3'
   '-x+2/3, z+1/4, y+7/12'
   'x+1/3, -z+1/12, -y+3/4'
   '-x+5/6, -z, -y+5/6'
   'x+1/2, z, y+1/2'
   'x+7/12, -z+1/6, y+5/12'
   '-x+3/4, z+1/6, -y+11/12'
   'z+1/12, y+5/12, -x+2/3'
   '-z+1/4, -y+11/12, x+1/3'
   'z+1/4, -y+5/6, x+5/12'
   '-z+1/12, y+1/2, -x+11/12'
   '-z, y+7/12, x+7/12'
   'z, -y+3/4, -x+3/4'
   '-z+1/6, -y+2/3, -x+5/6'
   'z+1/6, y+1/3, x+1/2'
   'x+1/2, y+1/2, z'
   '-x+5/6, -y+5/6, -z'
   '-x+3/4, -y+11/12, z+1/6'
   'x+7/12, y+5/12, -z+1/6'
   '-x+11/12, y+1/3, -z+1/4'
   'x+5/12, -y+2/3, z+1/12'
   'x+1/3, -y+3/4, -z+1/12'
   '-x+2/3, y+7/12, z+1/4'
   'z+1/6, x+1/2, y+1/3'
   '-z+1/6, -x+5/6, -y+2/3'
   'z, -x+3/4, -y+3/4'
   '-z, x+7/12, y+7/12'
   '-z+1/12, -x+11/12, y+1/2'
   'z+1/4, x+5/12, -y+5/6'
   '-z+1/4, x+1/3, -y+11/12'
   'z+1/12, -x+2/3, y+5/12'
   'y+1/2, z+1/6, x+1/3'
   '-y+5/6, -z+1/6, -x+2/3'
   '-y+11/12, z, -x+11/12'
   'y+5/12, -z, x+5/12'
   'y+1/3, -z+1/12, -x+3/4'
   '-y+2/3, z+1/4, x+7/12'
   '-y+3/4, -z+1/4, x+1/2'
   'y+7/12, z+1/12, -x+5/6'
   'y+5/12, x+7/12, -z+1/6'
   '-y+11/12, -x+3/4, z+1/6'
   '-y+5/6, -x+5/6, -z'
   'y+1/2, x+1/2, z'
   'y+7/12, -x+2/3, z+1/4'
   '-y+3/4, x+1/3, -z+1/12'
   '-y+2/3, x+5/12, z+1/12'
   'y+1/3, -x+11/12, -z+1/4'
   'x+5/12, z+1/4, -y+5/6'
   '-x+11/12, -z+1/12, y+1/2'
   '-x+2/3, z+1/12, y+5/12'
   'x+1/3, -z+1/4, -y+11/12'
   '-x+5/6, -z+1/6, -y+2/3'
   'x+1/2, z+1/6, y+1/3'
   'x+7/12, -z, y+7/12'
   '-x+3/4, z, -y+3/4'
   'z+1/12, y+7/12, -x+5/6'
   '-z+1/4, -y+3/4, x+1/2'
   'z+1/4, -y+2/3, x+7/12'
   '-z+1/12, y+1/3, -x+3/4'
   '-z, y+5/12, x+5/12'
   'z, -y+11/12, -x+11/12'
   '-z+1/6, -y+5/6, -x+2/3'
   'z+1/6, y+1/2, x+1/3'
   'x+1/3, y+1/3, z+1/3'
   '-x+2/3, -y+2/3, -z+2/3'
   '-x+11/12, -y+3/4, z+1/2'
   'x+5/12, y+7/12, -z+5/6'
   '-x+3/4, y+1/2, -z+11/12'
   'x+7/12, -y+5/6, z+5/12'
   'x+1/2, -y+11/12, -z+3/4'
   '-x+5/6, y+5/12, z+7/12'
   'z+1/3, x+1/3, y+1/3'
   '-z+2/3, -x+2/3, -y+2/3'
   'z+1/2, -x+11/12, -y+3/4'
   '-z+5/6, x+5/12, y+7/12'
   '-z+11/12, -x+3/4, y+1/2'
   'z+5/12, x+7/12, -y+5/6'
   '-z+3/4, x+1/2, -y+11/12'
   'z+7/12, -x+5/6, y+5/12'
   'y+1/3, z+1/3, x+1/3'
   '-y+2/3, -z+2/3, -x+2/3'
   '-y+3/4, z+1/2, -x+11/12'
   'y+7/12, -z+5/6, x+5/12'
   'y+1/2, -z+11/12, -x+3/4'
   '-y+5/6, z+5/12, x+7/12'
   '-y+11/12, -z+3/4, x+1/2'
   'y+5/12, z+7/12, -x+5/6'
   'y+7/12, x+5/12, -z+5/6'
   '-y+3/4, -x+11/12, z+1/2'
   '-y+2/3, -x+2/3, -z+2/3'
   'y+1/3, x+1/3, z+1/3'
   'y+5/12, -x+5/6, z+7/12'
   '-y+11/12, x+1/2, -z+3/4'
   '-y+5/6, x+7/12, z+5/12'
   'y+1/2, -x+3/4, -z+11/12'
   'x+7/12, z+5/12, -y+5/6'
   '-x+3/4, -z+11/12, y+1/2'
   '-x+5/6, z+7/12, y+5/12'
   'x+1/2, -z+3/4, -y+11/12'
   '-x+2/3, -z+2/3, -y+2/3'
   'x+1/3, z+1/3, y+1/3'
   'x+5/12, -z+5/6, y+7/12'
   '-x+11/12, z+1/2, -y+3/4'
   'z+7/12, y+5/12, -x+5/6'
   '-z+3/4, -y+11/12, x+1/2'
   'z+5/12, -y+5/6, x+7/12'
   '-z+11/12, y+1/2, -x+3/4'
   '-z+5/6, y+7/12, x+5/12'
   'z+1/2, -y+3/4, -x+11/12'
   '-z+2/3, -y+2/3, -x+2/3'
   'z+1/3, y+1/3, x+1/3'
   'x+1/3, y+1/2, z+1/2'
   '-x+2/3, -y+5/6, -z+5/6'
   '-x+11/12, -y+11/12, z+1/3'
   'x+5/12, y+5/12, -z+2/3'
   '-x+3/4, y+1/3, -z+3/4'
   'x+7/12, -y+2/3, z+7/12'
   'x+1/2, -y+3/4, -z+11/12'
   '-x+5/6, y+7/12, z+5/12'
   'z+1/3, x+1/2, y+1/2'
   '-z+2/3, -x+5/6, -y+5/6'
   'z+1/2, -x+3/4, -y+11/12'
   '-z+5/6, x+7/12, y+5/12'
   '-z+11/12, -x+11/12, y+1/3'
   'z+5/12, x+5/12, -y+2/3'
   '-z+3/4, x+1/3, -y+3/4'
   'z+7/12, -x+2/3, y+7/12'
   'y+1/3, z+1/2, x+1/2'
   '-y+2/3, -z+5/6, -x+5/6'
   '-y+3/4, z+1/3, -x+3/4'
   'y+7/12, -z+2/3, x+7/12'
   'y+1/2, -z+3/4, -x+11/12'
   '-y+5/6, z+7/12, x+5/12'
   '-y+11/12, -z+11/12, x+1/3'
   'y+5/12, z+5/12, -x+2/3'
   'y+7/12, x+7/12, -z+2/3'
   '-y+3/4, -x+3/4, z+1/3'
   '-y+2/3, -x+5/6, -z+5/6'
   'y+1/3, x+1/2, z+1/2'
   'y+5/12, -x+2/3, z+5/12'
   '-y+11/12, x+1/3, -z+11/12'
   '-y+5/6, x+5/12, z+7/12'
   'y+1/2, -x+11/12, -z+3/4'
   'x+7/12, z+7/12, -y+2/3'
   '-x+3/4, -z+3/4, y+1/3'
   '-x+5/6, z+5/12, y+7/12'
   'x+1/2, -z+11/12, -y+3/4'
   '-x+2/3, -z+5/6, -y+5/6'
   'x+1/3, z+1/2, y+1/2'
   'x+5/12, -z+2/3, y+5/12'
   '-x+11/12, z+1/3, -y+11/12'
   'z+7/12, y+7/12, -x+2/3'
   '-z+3/4, -y+3/4, x+1/3'
   'z+5/12, -y+2/3, x+5/12'
   '-z+11/12, y+1/3, -x+11/12'
   '-z+5/6, y+5/12, x+7/12'
   'z+1/2, -y+11/12, -x+3/4'
   '-z+2/3, -y+5/6, -x+5/6'
   'z+1/3, y+1/2, x+1/2'
   'x+1/2, y+1/3, z+1/2'
   '-x+5/6, -y+2/3, -z+5/6'
   '-x+3/4, -y+3/4, z+1/3'
   'x+7/12, y+7/12, -z+2/3'
   '-x+11/12, y+1/2, -z+3/4'
   'x+5/12, -y+5/6, z+7/12'
   'x+1/3, -y+11/12, -z+11/12'
   '-x+2/3, y+5/12, z+5/12'
   'z+1/2, x+1/3, y+1/2'
   '-z+5/6, -x+2/3, -y+5/6'
   'z+1/3, -x+11/12, -y+11/12'
   '-z+2/3, x+5/12, y+5/12'
   '-z+3/4, -x+3/4, y+1/3'
   'z+7/12, x+7/12, -y+2/3'
   '-z+11/12, x+1/2, -y+3/4'
   'z+5/12, -x+5/6, y+7/12'
   'y+1/2, z+1/3, x+1/2'
   '-y+5/6, -z+2/3, -x+5/6'
   '-y+11/12, z+1/2, -x+3/4'
   'y+5/12, -z+5/6, x+7/12'
   'y+1/3, -z+11/12, -x+11/12'
   '-y+2/3, z+5/12, x+5/12'
   '-y+3/4, -z+3/4, x+1/3'
   'y+7/12, z+7/12, -x+2/3'
   'y+5/12, x+5/12, -z+2/3'
   '-y+11/12, -x+11/12, z+1/3'
   '-y+5/6, -x+2/3, -z+5/6'
   'y+1/2, x+1/3, z+1/2'
   'y+7/12, -x+5/6, z+5/12'
   '-y+3/4, x+1/2, -z+11/12'
   '-y+2/3, x+7/12, z+7/12'
   'y+1/3, -x+3/4, -z+3/4'
   'x+5/12, z+5/12, -y+2/3'
   '-x+11/12, -z+11/12, y+1/3'
   '-x+2/3, z+7/12, y+7/12'
   'x+1/3, -z+3/4, -y+3/4'
   '-x+5/6, -z+2/3, -y+5/6'
   'x+1/2, z+1/3, y+1/2'
   'x+7/12, -z+5/6, y+5/12'
   '-x+3/4, z+1/2, -y+11/12'
   'z+5/12, y+5/12, -x+2/3'
   '-z+11/12, -y+11/12, x+1/3'
   'z+7/12, -y+5/6, x+5/12'
   '-z+3/4, y+1/2, -x+11/12'
   '-z+2/3, y+7/12, x+7/12'
   'z+1/3, -y+3/4, -x+3/4'
   '-z+5/6, -y+2/3, -x+5/6'
   'z+1/2, y+1/3, x+1/2'
   'x+1/2, y+1/2, z+1/3'
   '-x+5/6, -y+5/6, -z+2/3'
   '-x+3/4, -y+11/12, z+1/2'
   'x+7/12, y+5/12, -z+5/6'
   '-x+11/12, y+1/3, -z+11/12'
   'x+5/12, -y+2/3, z+5/12'
   'x+1/3, -y+3/4, -z+3/4'
   '-x+2/3, y+7/12, z+7/12'
   'z+1/2, x+1/2, y+1/3'
   '-z+5/6, -x+5/6, -y+2/3'
   'z+1/3, -x+3/4, -y+3/4'
   '-z+2/3, x+7/12, y+7/12'
   '-z+3/4, -x+11/12, y+1/2'
   'z+7/12, x+5/12, -y+5/6'
   '-z+11/12, x+1/3, -y+11/12'
   'z+5/12, -x+2/3, y+5/12'
   'y+1/2, z+1/2, x+1/3'
   '-y+5/6, -z+5/6, -x+2/3'
   '-y+11/12, z+1/3, -x+11/12'
   'y+5/12, -z+2/3, x+5/12'
   'y+1/3, -z+3/4, -x+3/4'
   '-y+2/3, z+7/12, x+7/12'
   '-y+3/4, -z+11/12, x+1/2'
   'y+7/12, z+5/12, -x+5/6'
   'y+5/12, x+7/12, -z+5/6'
   '-y+11/12, -x+3/4, z+1/2'
   '-y+5/6, -x+5/6, -z+2/3'
   'y+1/2, x+1/2, z+1/3'
   'y+7/12, -x+2/3, z+7/12'
   '-y+3/4, x+1/3, -z+3/4'
   '-y+2/3, x+5/12, z+5/12'
   'y+1/3, -x+11/12, -z+11/12'
   'x+5/12, z+7/12, -y+5/6'
   '-x+11/12, -z+3/4, y+1/2'
   '-x+2/3, z+5/12, y+5/12'
   'x+1/3, -z+11/12, -y+11/12'
   '-x+5/6, -z+5/6, -y+2/3'
   'x+1/2, z+1/2, y+1/3'
   'x+7/12, -z+2/3, y+7/12'
   '-x+3/4, z+1/3, -y+3/4'
   'z+5/12, y+7/12, -x+5/6'
   '-z+11/12, -y+3/4, x+1/2'
   'z+7/12, -y+2/3, x+7/12'
   '-z+3/4, y+1/3, -x+3/4'
   '-z+2/3, y+5/12, x+5/12'
   'z+1/3, -y+11/12, -x+11/12'
   '-z+5/6, -y+5/6, -x+2/3'
   'z+1/2, y+1/2, x+1/3'
   'x+1/3, y+1/3, z+2/3'
   '-x+2/3, -y+2/3, -z+1/3'
   '-x+11/12, -y+3/4, z+5/6'
   'x+5/12, y+7/12, -z+1/2'
   '-x+3/4, y+1/2, -z+7/12'
   'x+7/12, -y+5/6, z+3/4'
   'x+1/2, -y+11/12, -z+5/12'
   '-x+5/6, y+5/12, z+11/12'
   'z+2/3, x+1/3, y+1/3'
   '-z+1/3, -x+2/3, -y+2/3'
   'z+5/6, -x+11/12, -y+3/4'
   '-z+1/2, x+5/12, y+7/12'
   '-z+7/12, -x+3/4, y+1/2'
   'z+3/4, x+7/12, -y+5/6'
   '-z+5/12, x+1/2, -y+11/12'
   'z+11/12, -x+5/6, y+5/12'
   'y+1/3, z+2/3, x+1/3'
   '-y+2/3, -z+1/3, -x+2/3'
   '-y+3/4, z+5/6, -x+11/12'
   'y+7/12, -z+1/2, x+5/12'
   'y+1/2, -z+7/12, -x+3/4'
   '-y+5/6, z+3/4, x+7/12'
   '-y+11/12, -z+5/12, x+1/2'
   'y+5/12, z+11/12, -x+5/6'
   'y+7/12, x+5/12, -z+1/2'
   '-y+3/4, -x+11/12, z+5/6'
   '-y+2/3, -x+2/3, -z+1/3'
   'y+1/3, x+1/3, z+2/3'
   'y+5/12, -x+5/6, z+11/12'
   '-y+11/12, x+1/2, -z+5/12'
   '-y+5/6, x+7/12, z+3/4'
   'y+1/2, -x+3/4, -z+7/12'
   'x+7/12, z+3/4, -y+5/6'
   '-x+3/4, -z+7/12, y+1/2'
   '-x+5/6, z+11/12, y+5/12'
   'x+1/2, -z+5/12, -y+11/12'
   '-x+2/3, -z+1/3, -y+2/3'
   'x+1/3, z+2/3, y+1/3'
   'x+5/12, -z+1/2, y+7/12'
   '-x+11/12, z+5/6, -y+3/4'
   'z+11/12, y+5/12, -x+5/6'
   '-z+5/12, -y+11/12, x+1/2'
   'z+3/4, -y+5/6, x+7/12'
   '-z+7/12, y+1/2, -x+3/4'
   '-z+1/2, y+7/12, x+5/12'
   'z+5/6, -y+3/4, -x+11/12'
   '-z+1/3, -y+2/3, -x+2/3'
   'z+2/3, y+1/3, x+1/3'
   'x+1/3, y+1/2, z+5/6'
   '-x+2/3, -y+5/6, -z+1/2'
   '-x+11/12, -y+11/12, z+2/3'
   'x+5/12, y+5/12, -z+1/3'
   '-x+3/4, y+1/3, -z+5/12'
   'x+7/12, -y+2/3, z+11/12'
   'x+1/2, -y+3/4, -z+7/12'
   '-x+5/6, y+7/12, z+3/4'
   'z+2/3, x+1/2, y+1/2'
   '-z+1/3, -x+5/6, -y+5/6'
   'z+5/6, -x+3/4, -y+11/12'
   '-z+1/2, x+7/12, y+5/12'
   '-z+7/12, -x+11/12, y+1/3'
   'z+3/4, x+5/12, -y+2/3'
   '-z+5/12, x+1/3, -y+3/4'
   'z+11/12, -x+2/3, y+7/12'
   'y+1/3, z+5/6, x+1/2'
   '-y+2/3, -z+1/2, -x+5/6'
   '-y+3/4, z+2/3, -x+3/4'
   'y+7/12, -z+1/3, x+7/12'
   'y+1/2, -z+5/12, -x+11/12'
   '-y+5/6, z+11/12, x+5/12'
   '-y+11/12, -z+7/12, x+1/3'
   'y+5/12, z+3/4, -x+2/3'
   'y+7/12, x+7/12, -z+1/3'
   '-y+3/4, -x+3/4, z+2/3'
   '-y+2/3, -x+5/6, -z+1/2'
   'y+1/3, x+1/2, z+5/6'
   'y+5/12, -x+2/3, z+3/4'
   '-y+11/12, x+1/3, -z+7/12'
   '-y+5/6, x+5/12, z+11/12'
   'y+1/2, -x+11/12, -z+5/12'
   'x+7/12, z+11/12, -y+2/3'
   '-x+3/4, -z+5/12, y+1/3'
   '-x+5/6, z+3/4, y+7/12'
   'x+1/2, -z+7/12, -y+3/4'
   '-x+2/3, -z+1/2, -y+5/6'
   'x+1/3, z+5/6, y+1/2'
   'x+5/12, -z+1/3, y+5/12'
   '-x+11/12, z+2/3, -y+11/12'
   'z+11/12, y+7/12, -x+2/3'
   '-z+5/12, -y+3/4, x+1/3'
   'z+3/4, -y+2/3, x+5/12'
   '-z+7/12, y+1/3, -x+11/12'
   '-z+1/2, y+5/12, x+7/12'
   'z+5/6, -y+11/12, -x+3/4'
   '-z+1/3, -y+5/6, -x+5/6'
   'z+2/3, y+1/2, x+1/2'
   'x+1/2, y+1/3, z+5/6'
   '-x+5/6, -y+2/3, -z+1/2'
   '-x+3/4, -y+3/4, z+2/3'
   'x+7/12, y+7/12, -z+1/3'
   '-x+11/12, y+1/2, -z+5/12'
   'x+5/12, -y+5/6, z+11/12'
   'x+1/3, -y+11/12, -z+7/12'
   '-x+2/3, y+5/12, z+3/4'
   'z+5/6, x+1/3, y+1/2'
   '-z+1/2, -x+2/3, -y+5/6'
   'z+2/3, -x+11/12, -y+11/12'
   '-z+1/3, x+5/12, y+5/12'
   '-z+5/12, -x+3/4, y+1/3'
   'z+11/12, x+7/12, -y+2/3'
   '-z+7/12, x+1/2, -y+3/4'
   'z+3/4, -x+5/6, y+7/12'
   'y+1/2, z+2/3, x+1/2'
   '-y+5/6, -z+1/3, -x+5/6'
   '-y+11/12, z+5/6, -x+3/4'
   'y+5/12, -z+1/2, x+7/12'
   'y+1/3, -z+7/12, -x+11/12'
   '-y+2/3, z+3/4, x+5/12'
   '-y+3/4, -z+5/12, x+1/3'
   'y+7/12, z+11/12, -x+2/3'
   'y+5/12, x+5/12, -z+1/3'
   '-y+11/12, -x+11/12, z+2/3'
   '-y+5/6, -x+2/3, -z+1/2'
   'y+1/2, x+1/3, z+5/6'
   'y+7/12, -x+5/6, z+3/4'
   '-y+3/4, x+1/2, -z+7/12'
   '-y+2/3, x+7/12, z+11/12'
   'y+1/3, -x+3/4, -z+5/12'
   'x+5/12, z+3/4, -y+2/3'
   '-x+11/12, -z+7/12, y+1/3'
   '-x+2/3, z+11/12, y+7/12'
   'x+1/3, -z+5/12, -y+3/4'
   '-x+5/6, -z+1/3, -y+5/6'
   'x+1/2, z+2/3, y+1/2'
   'x+7/12, -z+1/2, y+5/12'
   '-x+3/4, z+5/6, -y+11/12'
   'z+3/4, y+5/12, -x+2/3'
   '-z+7/12, -y+11/12, x+1/3'
   'z+11/12, -y+5/6, x+5/12'
   '-z+5/12, y+1/2, -x+11/12'
   '-z+1/3, y+7/12, x+7/12'
   'z+2/3, -y+3/4, -x+3/4'
   '-z+1/2, -y+2/3, -x+5/6'
   'z+5/6, y+1/3, x+1/2'
   'x+1/2, y+1/2, z+2/3'
   '-x+5/6, -y+5/6, -z+1/3'
   '-x+3/4, -y+11/12, z+5/6'
   'x+7/12, y+5/12, -z+1/2'
   '-x+11/12, y+1/3, -z+7/12'
   'x+5/12, -y+2/3, z+3/4'
   'x+1/3, -y+3/4, -z+5/12'
   '-x+2/3, y+7/12, z+11/12'
   'z+5/6, x+1/2, y+1/3'
   '-z+1/2, -x+5/6, -y+2/3'
   'z+2/3, -x+3/4, -y+3/4'
   '-z+1/3, x+7/12, y+7/12'
   '-z+5/12, -x+11/12, y+1/2'
   'z+11/12, x+5/12, -y+5/6'
   '-z+7/12, x+1/3, -y+11/12'
   'z+3/4, -x+2/3, y+5/12'
   'y+1/2, z+5/6, x+1/3'
   '-y+5/6, -z+1/2, -x+2/3'
   '-y+11/12, z+2/3, -x+11/12'
   'y+5/12, -z+1/3, x+5/12'
   'y+1/3, -z+5/12, -x+3/4'
   '-y+2/3, z+11/12, x+7/12'
   '-y+3/4, -z+7/12, x+1/2'
   'y+7/12, z+3/4, -x+5/6'
   'y+5/12, x+7/12, -z+1/2'
   '-y+11/12, -x+3/4, z+5/6'
   '-y+5/6, -x+5/6, -z+1/3'
   'y+1/2, x+1/2, z+2/3'
   'y+7/12, -x+2/3, z+11/12'
   '-y+3/4, x+1/3, -z+5/12'
   '-y+2/3, x+5/12, z+3/4'
   'y+1/3, -x+11/12, -z+7/12'
   'x+5/12, z+11/12, -y+5/6'
   '-x+11/12, -z+5/12, y+1/2'
   '-x+2/3, z+3/4, y+5/12'
   'x+1/3, -z+7/12, -y+11/12'
   '-x+5/6, -z+1/2, -y+2/3'
   'x+1/2, z+5/6, y+1/3'
   'x+7/12, -z+1/3, y+7/12'
   '-x+3/4, z+2/3, -y+3/4'
   'z+3/4, y+7/12, -x+5/6'
   '-z+7/12, -y+3/4, x+1/2'
   'z+11/12, -y+2/3, x+7/12'
   '-z+5/12, y+1/3, -x+3/4'
   '-z+1/3, y+5/12, x+5/12'
   'z+2/3, -y+11/12, -x+11/12'
   '-z+1/2, -y+5/6, -x+2/3'
   'z+5/6, y+1/2, x+1/3'
   'x+1/3, y+2/3, z'
   '-x+2/3, -y+1/3, -z'
   '-x+11/12, -y+5/12, z+1/6'
   'x+5/12, y+11/12, -z+1/6'
   '-x+3/4, y+5/6, -z+1/4'
   'x+7/12, -y+1/2, z+1/12'
   'x+1/2, -y+7/12, -z+1/12'
   '-x+5/6, y+3/4, z+1/4'
   'z, x+1/3, y+2/3'
   '-z, -x+2/3, -y+1/3'
   'z+1/6, -x+11/12, -y+5/12'
   '-z+1/6, x+5/12, y+11/12'
   '-z+1/4, -x+3/4, y+5/6'
   'z+1/12, x+7/12, -y+1/2'
   '-z+1/12, x+1/2, -y+7/12'
   'z+1/4, -x+5/6, y+3/4'
   'y+2/3, z, x+1/3'
   '-y+1/3, -z, -x+2/3'
   '-y+5/12, z+1/6, -x+11/12'
   'y+11/12, -z+1/6, x+5/12'
   'y+5/6, -z+1/4, -x+3/4'
   '-y+1/2, z+1/12, x+7/12'
   '-y+7/12, -z+1/12, x+1/2'
   'y+3/4, z+1/4, -x+5/6'
   'y+11/12, x+5/12, -z+1/6'
   '-y+5/12, -x+11/12, z+1/6'
   '-y+1/3, -x+2/3, -z'
   'y+2/3, x+1/3, z'
   'y+3/4, -x+5/6, z+1/4'
   '-y+7/12, x+1/2, -z+1/12'
   '-y+1/2, x+7/12, z+1/12'
   'y+5/6, -x+3/4, -z+1/4'
   'x+7/12, z+1/12, -y+1/2'
   '-x+3/4, -z+1/4, y+5/6'
   '-x+5/6, z+1/4, y+3/4'
   'x+1/2, -z+1/12, -y+7/12'
   '-x+2/3, -z, -y+1/3'
   'x+1/3, z, y+2/3'
   'x+5/12, -z+1/6, y+11/12'
   '-x+11/12, z+1/6, -y+5/12'
   'z+1/4, y+3/4, -x+5/6'
   '-z+1/12, -y+7/12, x+1/2'
   'z+1/12, -y+1/2, x+7/12'
   '-z+1/4, y+5/6, -x+3/4'
   '-z+1/6, y+11/12, x+5/12'
   'z+1/6, -y+5/12, -x+11/12'
   '-z, -y+1/3, -x+2/3'
   'z, y+2/3, x+1/3'
   'x+1/3, y+5/6, z+1/6'
   '-x+2/3, -y+1/2, -z+1/6'
   '-x+11/12, -y+7/12, z'
   'x+5/12, y+3/4, -z'
   '-x+3/4, y+2/3, -z+1/12'
   'x+7/12, -y+1/3, z+1/4'
   'x+1/2, -y+5/12, -z+1/4'
   '-x+5/6, y+11/12, z+1/12'
   'z, x+1/2, y+5/6'
   '-z, -x+5/6, -y+1/2'
   'z+1/6, -x+3/4, -y+7/12'
   '-z+1/6, x+7/12, y+3/4'
   '-z+1/4, -x+11/12, y+2/3'
   'z+1/12, x+5/12, -y+1/3'
   '-z+1/12, x+1/3, -y+5/12'
   'z+1/4, -x+2/3, y+11/12'
   'y+2/3, z+1/6, x+1/2'
   '-y+1/3, -z+1/6, -x+5/6'
   '-y+5/12, z, -x+3/4'
   'y+11/12, -z, x+7/12'
   'y+5/6, -z+1/12, -x+11/12'
   '-y+1/2, z+1/4, x+5/12'
   '-y+7/12, -z+1/4, x+1/3'
   'y+3/4, z+1/12, -x+2/3'
   'y+11/12, x+7/12, -z'
   '-y+5/12, -x+3/4, z'
   '-y+1/3, -x+5/6, -z+1/6'
   'y+2/3, x+1/2, z+1/6'
   'y+3/4, -x+2/3, z+1/12'
   '-y+7/12, x+1/3, -z+1/4'
   '-y+1/2, x+5/12, z+1/4'
   'y+5/6, -x+11/12, -z+1/12'
   'x+7/12, z+1/4, -y+1/3'
   '-x+3/4, -z+1/12, y+2/3'
   '-x+5/6, z+1/12, y+11/12'
   'x+1/2, -z+1/4, -y+5/12'
   '-x+2/3, -z+1/6, -y+1/2'
   'x+1/3, z+1/6, y+5/6'
   'x+5/12, -z, y+3/4'
   '-x+11/12, z, -y+7/12'
   'z+1/4, y+11/12, -x+2/3'
   '-z+1/12, -y+5/12, x+1/3'
   'z+1/12, -y+1/3, x+5/12'
   '-z+1/4, y+2/3, -x+11/12'
   '-z+1/6, y+3/4, x+7/12'
   'z+1/6, -y+7/12, -x+3/4'
   '-z, -y+1/2, -x+5/6'
   'z, y+5/6, x+1/2'
   'x+1/2, y+2/3, z+1/6'
   '-x+5/6, -y+1/3, -z+1/6'
   '-x+3/4, -y+5/12, z'
   'x+7/12, y+11/12, -z'
   '-x+11/12, y+5/6, -z+1/12'
   'x+5/12, -y+1/2, z+1/4'
   'x+1/3, -y+7/12, -z+1/4'
   '-x+2/3, y+3/4, z+1/12'
   'z+1/6, x+1/3, y+5/6'
   '-z+1/6, -x+2/3, -y+1/2'
   'z, -x+11/12, -y+7/12'
   '-z, x+5/12, y+3/4'
   '-z+1/12, -x+3/4, y+2/3'
   'z+1/4, x+7/12, -y+1/3'
   '-z+1/4, x+1/2, -y+5/12'
   'z+1/12, -x+5/6, y+11/12'
   'y+5/6, z, x+1/2'
   '-y+1/2, -z, -x+5/6'
   '-y+7/12, z+1/6, -x+3/4'
   'y+3/4, -z+1/6, x+7/12'
   'y+2/3, -z+1/4, -x+11/12'
   '-y+1/3, z+1/12, x+5/12'
   '-y+5/12, -z+1/12, x+1/3'
   'y+11/12, z+1/4, -x+2/3'
   'y+3/4, x+5/12, -z'
   '-y+7/12, -x+11/12, z'
   '-y+1/2, -x+2/3, -z+1/6'
   'y+5/6, x+1/3, z+1/6'
   'y+11/12, -x+5/6, z+1/12'
   '-y+5/12, x+1/2, -z+1/4'
   '-y+1/3, x+7/12, z+1/4'
   'y+2/3, -x+3/4, -z+1/12'
   'x+5/12, z+1/12, -y+1/3'
   '-x+11/12, -z+1/4, y+2/3'
   '-x+2/3, z+1/4, y+11/12'
   'x+1/3, -z+1/12, -y+5/12'
   '-x+5/6, -z, -y+1/2'
   'x+1/2, z, y+5/6'
   'x+7/12, -z+1/6, y+3/4'
   '-x+3/4, z+1/6, -y+7/12'
   'z+1/12, y+3/4, -x+2/3'
   '-z+1/4, -y+7/12, x+1/3'
   'z+1/4, -y+1/2, x+5/12'
   '-z+1/12, y+5/6, -x+11/12'
   '-z, y+11/12, x+7/12'
   'z, -y+5/12, -x+3/4'
   '-z+1/6, -y+1/3, -x+5/6'
   'z+1/6, y+2/3, x+1/2'
   'x+1/2, y+5/6, z'
   '-x+5/6, -y+1/2, -z'
   '-x+3/4, -y+7/12, z+1/6'
   'x+7/12, y+3/4, -z+1/6'
   '-x+11/12, y+2/3, -z+1/4'
   'x+5/12, -y+1/3, z+1/12'
   'x+1/3, -y+5/12, -z+1/12'
   '-x+2/3, y+11/12, z+1/4'
   'z+1/6, x+1/2, y+2/3'
   '-z+1/6, -x+5/6, -y+1/3'
   'z, -x+3/4, -y+5/12'
   '-z, x+7/12, y+11/12'
   '-z+1/12, -x+11/12, y+5/6'
   'z+1/4, x+5/12, -y+1/2'
   '-z+1/4, x+1/3, -y+7/12'
   'z+1/12, -x+2/3, y+3/4'
   'y+5/6, z+1/6, x+1/3'
   '-y+1/2, -z+1/6, -x+2/3'
   '-y+7/12, z, -x+11/12'
   'y+3/4, -z, x+5/12'
   'y+2/3, -z+1/12, -x+3/4'
   '-y+1/3, z+1/4, x+7/12'
   '-y+5/12, -z+1/4, x+1/2'
   'y+11/12, z+1/12, -x+5/6'
   'y+3/4, x+7/12, -z+1/6'
   '-y+7/12, -x+3/4, z+1/6'
   '-y+1/2, -x+5/6, -z'
   'y+5/6, x+1/2, z'
   'y+11/12, -x+2/3, z+1/4'
   '-y+5/12, x+1/3, -z+1/12'
   '-y+1/3, x+5/12, z+1/12'
   'y+2/3, -x+11/12, -z+1/4'
   'x+5/12, z+1/4, -y+1/2'
   '-x+11/12, -z+1/12, y+5/6'
   '-x+2/3, z+1/12, y+3/4'
   'x+1/3, -z+1/4, -y+7/12'
   '-x+5/6, -z+1/6, -y+1/3'
   'x+1/2, z+1/6, y+2/3'
   'x+7/12, -z, y+11/12'
   '-x+3/4, z, -y+5/12'
   'z+1/12, y+11/12, -x+5/6'
   '-z+1/4, -y+5/12, x+1/2'
   'z+1/4, -y+1/3, x+7/12'
   '-z+1/12, y+2/3, -x+3/4'
   '-z, y+3/4, x+5/12'
   'z, -y+7/12, -x+11/12'
   '-z+1/6, -y+1/2, -x+2/3'
   'z+1/6, y+5/6, x+1/3'
   'x+1/3, y+2/3, z+1/3'
   '-x+2/3, -y+1/3, -z+2/3'
   '-x+11/12, -y+5/12, z+1/2'
   'x+5/12, y+11/12, -z+5/6'
   '-x+3/4, y+5/6, -z+11/12'
   'x+7/12, -y+1/2, z+5/12'
   'x+1/2, -y+7/12, -z+3/4'
   '-x+5/6, y+3/4, z+7/12'
   'z+1/3, x+1/3, y+2/3'
   '-z+2/3, -x+2/3, -y+1/3'
   'z+1/2, -x+11/12, -y+5/12'
   '-z+5/6, x+5/12, y+11/12'
   '-z+11/12, -x+3/4, y+5/6'
   'z+5/12, x+7/12, -y+1/2'
   '-z+3/4, x+1/2, -y+7/12'
   'z+7/12, -x+5/6, y+3/4'
   'y+2/3, z+1/3, x+1/3'
   '-y+1/3, -z+2/3, -x+2/3'
   '-y+5/12, z+1/2, -x+11/12'
   'y+11/12, -z+5/6, x+5/12'
   'y+5/6, -z+11/12, -x+3/4'
   '-y+1/2, z+5/12, x+7/12'
   '-y+7/12, -z+3/4, x+1/2'
   'y+3/4, z+7/12, -x+5/6'
   'y+11/12, x+5/12, -z+5/6'
   '-y+5/12, -x+11/12, z+1/2'
   '-y+1/3, -x+2/3, -z+2/3'
   'y+2/3, x+1/3, z+1/3'
   'y+3/4, -x+5/6, z+7/12'
   '-y+7/12, x+1/2, -z+3/4'
   '-y+1/2, x+7/12, z+5/12'
   'y+5/6, -x+3/4, -z+11/12'
   'x+7/12, z+5/12, -y+1/2'
   '-x+3/4, -z+11/12, y+5/6'
   '-x+5/6, z+7/12, y+3/4'
   'x+1/2, -z+3/4, -y+7/12'
   '-x+2/3, -z+2/3, -y+1/3'
   'x+1/3, z+1/3, y+2/3'
   'x+5/12, -z+5/6, y+11/12'
   '-x+11/12, z+1/2, -y+5/12'
   'z+7/12, y+3/4, -x+5/6'
   '-z+3/4, -y+7/12, x+1/2'
   'z+5/12, -y+1/2, x+7/12'
   '-z+11/12, y+5/6, -x+3/4'
   '-z+5/6, y+11/12, x+5/12'
   'z+1/2, -y+5/12, -x+11/12'
   '-z+2/3, -y+1/3, -x+2/3'
   'z+1/3, y+2/3, x+1/3'
   'x+1/3, y+5/6, z+1/2'
   '-x+2/3, -y+1/2, -z+5/6'
   '-x+11/12, -y+7/12, z+1/3'
   'x+5/12, y+3/4, -z+2/3'
   '-x+3/4, y+2/3, -z+3/4'
   'x+7/12, -y+1/3, z+7/12'
   'x+1/2, -y+5/12, -z+11/12'
   '-x+5/6, y+11/12, z+5/12'
   'z+1/3, x+1/2, y+5/6'
   '-z+2/3, -x+5/6, -y+1/2'
   'z+1/2, -x+3/4, -y+7/12'
   '-z+5/6, x+7/12, y+3/4'
   '-z+11/12, -x+11/12, y+2/3'
   'z+5/12, x+5/12, -y+1/3'
   '-z+3/4, x+1/3, -y+5/12'
   'z+7/12, -x+2/3, y+11/12'
   'y+2/3, z+1/2, x+1/2'
   '-y+1/3, -z+5/6, -x+5/6'
   '-y+5/12, z+1/3, -x+3/4'
   'y+11/12, -z+2/3, x+7/12'
   'y+5/6, -z+3/4, -x+11/12'
   '-y+1/2, z+7/12, x+5/12'
   '-y+7/12, -z+11/12, x+1/3'
   'y+3/4, z+5/12, -x+2/3'
   'y+11/12, x+7/12, -z+2/3'
   '-y+5/12, -x+3/4, z+1/3'
   '-y+1/3, -x+5/6, -z+5/6'
   'y+2/3, x+1/2, z+1/2'
   'y+3/4, -x+2/3, z+5/12'
   '-y+7/12, x+1/3, -z+11/12'
   '-y+1/2, x+5/12, z+7/12'
   'y+5/6, -x+11/12, -z+3/4'
   'x+7/12, z+7/12, -y+1/3'
   '-x+3/4, -z+3/4, y+2/3'
   '-x+5/6, z+5/12, y+11/12'
   'x+1/2, -z+11/12, -y+5/12'
   '-x+2/3, -z+5/6, -y+1/2'
   'x+1/3, z+1/2, y+5/6'
   'x+5/12, -z+2/3, y+3/4'
   '-x+11/12, z+1/3, -y+7/12'
   'z+7/12, y+11/12, -x+2/3'
   '-z+3/4, -y+5/12, x+1/3'
   'z+5/12, -y+1/3, x+5/12'
   '-z+11/12, y+2/3, -x+11/12'
   '-z+5/6, y+3/4, x+7/12'
   'z+1/2, -y+7/12, -x+3/4'
   '-z+2/3, -y+1/2, -x+5/6'
   'z+1/3, y+5/6, x+1/2'
   'x+1/2, y+2/3, z+1/2'
   '-x+5/6, -y+1/3, -z+5/6'
   '-x+3/4, -y+5/12, z+1/3'
   'x+7/12, y+11/12, -z+2/3'
   '-x+11/12, y+5/6, -z+3/4'
   'x+5/12, -y+1/2, z+7/12'
   'x+1/3, -y+7/12, -z+11/12'
   '-x+2/3, y+3/4, z+5/12'
   'z+1/2, x+1/3, y+5/6'
   '-z+5/6, -x+2/3, -y+1/2'
   'z+1/3, -x+11/12, -y+7/12'
   '-z+2/3, x+5/12, y+3/4'
   '-z+3/4, -x+3/4, y+2/3'
   'z+7/12, x+7/12, -y+1/3'
   '-z+11/12, x+1/2, -y+5/12'
   'z+5/12, -x+5/6, y+11/12'
   'y+5/6, z+1/3, x+1/2'
   '-y+1/2, -z+2/3, -x+5/6'
   '-y+7/12, z+1/2, -x+3/4'
   'y+3/4, -z+5/6, x+7/12'
   'y+2/3, -z+11/12, -x+11/12'
   '-y+1/3, z+5/12, x+5/12'
   '-y+5/12, -z+3/4, x+1/3'
   'y+11/12, z+7/12, -x+2/3'
   'y+3/4, x+5/12, -z+2/3'
   '-y+7/12, -x+11/12, z+1/3'
   '-y+1/2, -x+2/3, -z+5/6'
   'y+5/6, x+1/3, z+1/2'
   'y+11/12, -x+5/6, z+5/12'
   '-y+5/12, x+1/2, -z+11/12'
   '-y+1/3, x+7/12, z+7/12'
   'y+2/3, -x+3/4, -z+3/4'
   'x+5/12, z+5/12, -y+1/3'
   '-x+11/12, -z+11/12, y+2/3'
   '-x+2/3, z+7/12, y+11/12'
   'x+1/3, -z+3/4, -y+5/12'
   '-x+5/6, -z+2/3, -y+1/2'
   'x+1/2, z+1/3, y+5/6'
   'x+7/12, -z+5/6, y+3/4'
   '-x+3/4, z+1/2, -y+7/12'
   'z+5/12, y+3/4, -x+2/3'
   '-z+11/12, -y+7/12, x+1/3'
   'z+7/12, -y+1/2, x+5/12'
   '-z+3/4, y+5/6, -x+11/12'
   '-z+2/3, y+11/12, x+7/12'
   'z+1/3, -y+5/12, -x+3/4'
   '-z+5/6, -y+1/3, -x+5/6'
   'z+1/2, y+2/3, x+1/2'
   'x+1/2, y+5/6, z+1/3'
   '-x+5/6, -y+1/2, -z+2/3'
   '-x+3/4, -y+7/12, z+1/2'
   'x+7/12, y+3/4, -z+5/6'
   '-x+11/12, y+2/3, -z+11/12'
   'x+5/12, -y+1/3, z+5/12'
   'x+1/3, -y+5/12, -z+3/4'
   '-x+2/3, y+11/12, z+7/12'
   'z+1/2, x+1/2, y+2/3'
   '-z+5/6, -x+5/6, -y+1/3'
   'z+1/3, -x+3/4, -y+5/12'
   '-z+2/3, x+7/12, y+11/12'
   '-z+3/4, -x+11/12, y+5/6'
   'z+7/12, x+5/12, -y+1/2'
   '-z+11/12, x+1/3, -y+7/12'
   'z+5/12, -x+2/3, y+3/4'
   'y+5/6, z+1/2, x+1/3'
   '-y+1/2, -z+5/6, -x+2/3'
   '-y+7/12, z+1/3, -x+11/12'
   'y+3/4, -z+2/3, x+5/12'
   'y+2/3, -z+3/4, -x+3/4'
   '-y+1/3, z+7/12, x+7/12'
   '-y+5/12, -z+11/12, x+1/2'
   'y+11/12, z+5/12, -x+5/6'
   'y+3/4, x+7/12, -z+5/6'
   '-y+7/12, -x+3/4, z+1/2'
   '-y+1/2, -x+5/6, -z+2/3'
   'y+5/6, x+1/2, z+1/3'
   'y+11/12, -x+2/3, z+7/12'
   '-y+5/12, x+1/3, -z+3/4'
   '-y+1/3, x+5/12, z+5/12'
   'y+2/3, -x+11/12, -z+11/12'
   'x+5/12, z+7/12, -y+1/2'
   '-x+11/12, -z+3/4, y+5/6'
   '-x+2/3, z+5/12, y+3/4'
   'x+1/3, -z+11/12, -y+7/12'
   '-x+5/6, -z+5/6, -y+1/3'
   'x+1/2, z+1/2, y+2/3'
   'x+7/12, -z+2/3, y+11/12'
   '-x+3/4, z+1/3, -y+5/12'
   'z+5/12, y+11/12, -x+5/6'
   '-z+11/12, -y+5/12, x+1/2'
   'z+7/12, -y+1/3, x+7/12'
   '-z+3/4, y+2/3, -x+3/4'
   '-z+2/3, y+3/4, x+5/12'
   'z+1/3, -y+7/12, -x+11/12'
   '-z+5/6, -y+1/2, -x+2/3'
   'z+1/2, y+5/6, x+1/3'
   'x+1/3, y+2/3, z+2/3'
   '-x+2/3, -y+1/3, -z+1/3'
   '-x+11/12, -y+5/12, z+5/6'
   'x+5/12, y+11/12, -z+1/2'
   '-x+3/4, y+5/6, -z+7/12'
   'x+7/12, -y+1/2, z+3/4'
   'x+1/2, -y+7/12, -z+5/12'
   '-x+5/6, y+3/4, z+11/12'
   'z+2/3, x+1/3, y+2/3'
   '-z+1/3, -x+2/3, -y+1/3'
   'z+5/6, -x+11/12, -y+5/12'
   '-z+1/2, x+5/12, y+11/12'
   '-z+7/12, -x+3/4, y+5/6'
   'z+3/4, x+7/12, -y+1/2'
   '-z+5/12, x+1/2, -y+7/12'
   'z+11/12, -x+5/6, y+3/4'
   'y+2/3, z+2/3, x+1/3'
   '-y+1/3, -z+1/3, -x+2/3'
   '-y+5/12, z+5/6, -x+11/12'
   'y+11/12, -z+1/2, x+5/12'
   'y+5/6, -z+7/12, -x+3/4'
   '-y+1/2, z+3/4, x+7/12'
   '-y+7/12, -z+5/12, x+1/2'
   'y+3/4, z+11/12, -x+5/6'
   'y+11/12, x+5/12, -z+1/2'
   '-y+5/12, -x+11/12, z+5/6'
   '-y+1/3, -x+2/3, -z+1/3'
   'y+2/3, x+1/3, z+2/3'
   'y+3/4, -x+5/6, z+11/12'
   '-y+7/12, x+1/2, -z+5/12'
   '-y+1/2, x+7/12, z+3/4'
   'y+5/6, -x+3/4, -z+7/12'
   'x+7/12, z+3/4, -y+1/2'
   '-x+3/4, -z+7/12, y+5/6'
   '-x+5/6, z+11/12, y+3/4'
   'x+1/2, -z+5/12, -y+7/12'
   '-x+2/3, -z+1/3, -y+1/3'
   'x+1/3, z+2/3, y+2/3'
   'x+5/12, -z+1/2, y+11/12'
   '-x+11/12, z+5/6, -y+5/12'
   'z+11/12, y+3/4, -x+5/6'
   '-z+5/12, -y+7/12, x+1/2'
   'z+3/4, -y+1/2, x+7/12'
   '-z+7/12, y+5/6, -x+3/4'
   '-z+1/2, y+11/12, x+5/12'
   'z+5/6, -y+5/12, -x+11/12'
   '-z+1/3, -y+1/3, -x+2/3'
   'z+2/3, y+2/3, x+1/3'
   'x+1/3, y+5/6, z+5/6'
   '-x+2/3, -y+1/2, -z+1/2'
   '-x+11/12, -y+7/12, z+2/3'
   'x+5/12, y+3/4, -z+1/3'
   '-x+3/4, y+2/3, -z+5/12'
   'x+7/12, -y+1/3, z+11/12'
   'x+1/2, -y+5/12, -z+7/12'
   '-x+5/6, y+11/12, z+3/4'
   'z+2/3, x+1/2, y+5/6'
   '-z+1/3, -x+5/6, -y+1/2'
   'z+5/6, -x+3/4, -y+7/12'
   '-z+1/2, x+7/12, y+3/4'
   '-z+7/12, -x+11/12, y+2/3'
   'z+3/4, x+5/12, -y+1/3'
   '-z+5/12, x+1/3, -y+5/12'
   'z+11/12, -x+2/3, y+11/12'
   'y+2/3, z+5/6, x+1/2'
   '-y+1/3, -z+1/2, -x+5/6'
   '-y+5/12, z+2/3, -x+3/4'
   'y+11/12, -z+1/3, x+7/12'
   'y+5/6, -z+5/12, -x+11/12'
   '-y+1/2, z+11/12, x+5/12'
   '-y+7/12, -z+7/12, x+1/3'
   'y+3/4, z+3/4, -x+2/3'
   'y+11/12, x+7/12, -z+1/3'
   '-y+5/12, -x+3/4, z+2/3'
   '-y+1/3, -x+5/6, -z+1/2'
   'y+2/3, x+1/2, z+5/6'
   'y+3/4, -x+2/3, z+3/4'
   '-y+7/12, x+1/3, -z+7/12'
   '-y+1/2, x+5/12, z+11/12'
   'y+5/6, -x+11/12, -z+5/12'
   'x+7/12, z+11/12, -y+1/3'
   '-x+3/4, -z+5/12, y+2/3'
   '-x+5/6, z+3/4, y+11/12'
   'x+1/2, -z+7/12, -y+5/12'
   '-x+2/3, -z+1/2, -y+1/2'
   'x+1/3, z+5/6, y+5/6'
   'x+5/12, -z+1/3, y+3/4'
   '-x+11/12, z+2/3, -y+7/12'
   'z+11/12, y+11/12, -x+2/3'
   '-z+5/12, -y+5/12, x+1/3'
   'z+3/4, -y+1/3, x+5/12'
   '-z+7/12, y+2/3, -x+11/12'
   '-z+1/2, y+3/4, x+7/12'
   'z+5/6, -y+7/12, -x+3/4'
   '-z+1/3, -y+1/2, -x+5/6'
   'z+2/3, y+5/6, x+1/2'
   'x+1/2, y+2/3, z+5/6'
   '-x+5/6, -y+1/3, -z+1/2'
   '-x+3/4, -y+5/12, z+2/3'
   'x+7/12, y+11/12, -z+1/3'
   '-x+11/12, y+5/6, -z+5/12'
   'x+5/12, -y+1/2, z+11/12'
   'x+1/3, -y+7/12, -z+7/12'
   '-x+2/3, y+3/4, z+3/4'
   'z+5/6, x+1/3, y+5/6'
   '-z+1/2, -x+2/3, -y+1/2'
   'z+2/3, -x+11/12, -y+7/12'
   '-z+1/3, x+5/12, y+3/4'
   '-z+5/12, -x+3/4, y+2/3'
   'z+11/12, x+7/12, -y+1/3'
   '-z+7/12, x+1/2, -y+5/12'
   'z+3/4, -x+5/6, y+11/12'
   'y+5/6, z+2/3, x+1/2'
   '-y+1/2, -z+1/3, -x+5/6'
   '-y+7/12, z+5/6, -x+3/4'
   'y+3/4, -z+1/2, x+7/12'
   'y+2/3, -z+7/12, -x+11/12'
   '-y+1/3, z+3/4, x+5/12'
   '-y+5/12, -z+5/12, x+1/3'
   'y+11/12, z+11/12, -x+2/3'
   'y+3/4, x+5/12, -z+1/3'
   '-y+7/12, -x+11/12, z+2/3'
   '-y+1/2, -x+2/3, -z+1/2'
   'y+5/6, x+1/3, z+5/6'
   'y+11/12, -x+5/6, z+3/4'
   '-y+5/12, x+1/2, -z+7/12'
   '-y+1/3, x+7/12, z+11/12'
   'y+2/3, -x+3/4, -z+5/12'
   'x+5/12, z+3/4, -y+1/3'
   '-x+11/12, -z+7/12, y+2/3'
   '-x+2/3, z+11/12, y+11/12'
   'x+1/3, -z+5/12, -y+5/12'
   '-x+5/6, -z+1/3, -y+1/2'
   'x+1/2, z+2/3, y+5/6'
   'x+7/12, -z+1/2, y+3/4'
   '-x+3/4, z+5/6, -y+7/12'
   'z+3/4, y+3/4, -x+2/3'
   '-z+7/12, -y+7/12, x+1/3'
   'z+11/12, -y+1/2, x+5/12'
   '-z+5/12, y+5/6, -x+11/12'
   '-z+1/3, y+11/12, x+7/12'
   'z+2/3, -y+5/12, -x+3/4'
   '-z+1/2, -y+1/3, -x+5/6'
   'z+5/6, y+2/3, x+1/2'
   'x+1/2, y+5/6, z+2/3'
   '-x+5/6, -y+1/2, -z+1/3'
   '-x+3/4, -y+7/12, z+5/6'
   'x+7/12, y+3/4, -z+1/2'
   '-x+11/12, y+2/3, -z+7/12'
   'x+5/12, -y+1/3, z+3/4'
   'x+1/3, -y+5/12, -z+5/12'
   '-x+2/3, y+11/12, z+11/12'
   'z+5/6, x+1/2, y+2/3'
   '-z+1/2, -x+5/6, -y+1/3'
   'z+2/3, -x+3/4, -y+5/12'
   '-z+1/3, x+7/12, y+11/12'
   '-z+5/12, -x+11/12, y+5/6'
   'z+11/12, x+5/12, -y+1/2'
   '-z+7/12, x+1/3, -y+7/12'
   'z+3/4, -x+2/3, y+3/4'
   'y+5/6, z+5/6, x+1/3'
   '-y+1/2, -z+1/2, -x+2/3'
   '-y+7/12, z+2/3, -x+11/12'
   'y+3/4, -z+1/3, x+5/12'
   'y+2/3, -z+5/12, -x+3/4'
   '-y+1/3, z+11/12, x+7/12'
   '-y+5/12, -z+7/12, x+1/2'
   'y+11/12, z+3/4, -x+5/6'
   'y+3/4, x+7/12, -z+1/2'
   '-y+7/12, -x+3/4, z+5/6'
   '-y+1/2, -x+5/6, -z+1/3'
   'y+5/6, x+1/2, z+2/3'
   'y+11/12, -x+2/3, z+11/12'
   '-y+5/12, x+1/3, -z+5/12'
   '-y+1/3, x+5/12, z+3/4'
   'y+2/3, -x+11/12, -z+7/12'
   'x+5/12, z+11/12, -y+1/2'
   '-x+11/12, -z+5/12, y+5/6'
   '-x+2/3, z+3/4, y+3/4'
   'x+1/3, -z+7/12, -y+7/12'
   '-x+5/6, -z+1/2, -y+1/3'
   'x+1/2, z+5/6, y+2/3'
   'x+7/12, -z+1/3, y+11/12'
   '-x+3/4, z+2/3, -y+5/12'
   'z+3/4, y+11/12, -x+5/6'
   '-z+7/12, -y+5/12, x+1/2'
   'z+11/12, -y+1/3, x+7/12'
   '-z+5/12, y+2/3, -x+3/4'
   '-z+1/3, y+3/4, x+5/12'
   'z+2/3, -y+7/12, -x+11/12'
   '-z+1/2, -y+1/2, -x+2/3'
   'z+5/6, y+5/6, x+1/3'
   'x+2/3, y, z'
   '-x+1/3, -y, -z'
   '-x+7/12, -y+1/12, z+1/6'
   'x+3/4, y+1/4, -z+1/6'
   '-x+5/12, y+1/6, -z+1/4'
   'x+11/12, -y+1/6, z+1/12'
   'x+5/6, -y+1/4, -z+1/12'
   '-x+1/2, y+1/12, z+1/4'
   'z, x+2/3, y'
   '-z, -x+1/3, -y'
   'z+1/6, -x+7/12, -y+1/12'
   '-z+1/6, x+3/4, y+1/4'
   '-z+1/4, -x+5/12, y+1/6'
   'z+1/12, x+11/12, -y+1/6'
   '-z+1/12, x+5/6, -y+1/4'
   'z+1/4, -x+1/2, y+1/12'
   'y, z, x+2/3'
   '-y, -z, -x+1/3'
   '-y+1/12, z+1/6, -x+7/12'
   'y+1/4, -z+1/6, x+3/4'
   'y+1/6, -z+1/4, -x+5/12'
   '-y+1/6, z+1/12, x+11/12'
   '-y+1/4, -z+1/12, x+5/6'
   'y+1/12, z+1/4, -x+1/2'
   'y+1/4, x+3/4, -z+1/6'
   '-y+1/12, -x+7/12, z+1/6'
   '-y, -x+1/3, -z'
   'y, x+2/3, z'
   'y+1/12, -x+1/2, z+1/4'
   '-y+1/4, x+5/6, -z+1/12'
   '-y+1/6, x+11/12, z+1/12'
   'y+1/6, -x+5/12, -z+1/4'
   'x+11/12, z+1/12, -y+1/6'
   '-x+5/12, -z+1/4, y+1/6'
   '-x+1/2, z+1/4, y+1/12'
   'x+5/6, -z+1/12, -y+1/4'
   '-x+1/3, -z, -y'
   'x+2/3, z, y'
   'x+3/4, -z+1/6, y+1/4'
   '-x+7/12, z+1/6, -y+1/12'
   'z+1/4, y+1/12, -x+1/2'
   '-z+1/12, -y+1/4, x+5/6'
   'z+1/12, -y+1/6, x+11/12'
   '-z+1/4, y+1/6, -x+5/12'
   '-z+1/6, y+1/4, x+3/4'
   'z+1/6, -y+1/12, -x+7/12'
   '-z, -y, -x+1/3'
   'z, y, x+2/3'
   'x+2/3, y+1/6, z+1/6'
   '-x+1/3, -y+1/6, -z+1/6'
   '-x+7/12, -y+1/4, z'
   'x+3/4, y+1/12, -z'
   '-x+5/12, y, -z+1/12'
   'x+11/12, -y, z+1/4'
   'x+5/6, -y+1/12, -z+1/4'
   '-x+1/2, y+1/4, z+1/12'
   'z, x+5/6, y+1/6'
   '-z, -x+1/2, -y+1/6'
   'z+1/6, -x+5/12, -y+1/4'
   '-z+1/6, x+11/12, y+1/12'
   '-z+1/4, -x+7/12, y'
   'z+1/12, x+3/4, -y'
   '-z+1/12, x+2/3, -y+1/12'
   'z+1/4, -x+1/3, y+1/4'
   'y, z+1/6, x+5/6'
   '-y, -z+1/6, -x+1/2'
   '-y+1/12, z, -x+5/12'
   'y+1/4, -z, x+11/12'
   'y+1/6, -z+1/12, -x+7/12'
   '-y+1/6, z+1/4, x+3/4'
   '-y+1/4, -z+1/4, x+2/3'
   'y+1/12, z+1/12, -x+1/3'
   'y+1/4, x+11/12, -z'
   '-y+1/12, -x+5/12, z'
   '-y, -x+1/2, -z+1/6'
   'y, x+5/6, z+1/6'
   'y+1/12, -x+1/3, z+1/12'
   '-y+1/4, x+2/3, -z+1/4'
   '-y+1/6, x+3/4, z+1/4'
   'y+1/6, -x+7/12, -z+1/12'
   'x+11/12, z+1/4, -y'
   '-x+5/12, -z+1/12, y'
   '-x+1/2, z+1/12, y+1/4'
   'x+5/6, -z+1/4, -y+1/12'
   '-x+1/3, -z+1/6, -y+1/6'
   'x+2/3, z+1/6, y+1/6'
   'x+3/4, -z, y+1/12'
   '-x+7/12, z, -y+1/4'
   'z+1/4, y+1/4, -x+1/3'
   '-z+1/12, -y+1/12, x+2/3'
   'z+1/12, -y, x+3/4'
   '-z+1/4, y, -x+7/12'
   '-z+1/6, y+1/12, x+11/12'
   'z+1/6, -y+1/4, -x+5/12'
   '-z, -y+1/6, -x+1/2'
   'z, y+1/6, x+5/6'
   'x+5/6, y, z+1/6'
   '-x+1/2, -y, -z+1/6'
   '-x+5/12, -y+1/12, z'
   'x+11/12, y+1/4, -z'
   '-x+7/12, y+1/6, -z+1/12'
   'x+3/4, -y+1/6, z+1/4'
   'x+2/3, -y+1/4, -z+1/4'
   '-x+1/3, y+1/12, z+1/12'
   'z+1/6, x+2/3, y+1/6'
   '-z+1/6, -x+1/3, -y+1/6'
   'z, -x+7/12, -y+1/4'
   '-z, x+3/4, y+1/12'
   '-z+1/12, -x+5/12, y'
   'z+1/4, x+11/12, -y'
   '-z+1/4, x+5/6, -y+1/12'
   'z+1/12, -x+1/2, y+1/4'
   'y+1/6, z, x+5/6'
   '-y+1/6, -z, -x+1/2'
   '-y+1/4, z+1/6, -x+5/12'
   'y+1/12, -z+1/6, x+11/12'
   'y, -z+1/4, -x+7/12'
   '-y, z+1/12, x+3/4'
   '-y+1/12, -z+1/12, x+2/3'
   'y+1/4, z+1/4, -x+1/3'
   'y+1/12, x+3/4, -z'
   '-y+1/4, -x+7/12, z'
   '-y+1/6, -x+1/3, -z+1/6'
   'y+1/6, x+2/3, z+1/6'
   'y+1/4, -x+1/2, z+1/12'
   '-y+1/12, x+5/6, -z+1/4'
   '-y, x+11/12, z+1/4'
   'y, -x+5/12, -z+1/12'
   'x+3/4, z+1/12, -y'
   '-x+7/12, -z+1/4, y'
   '-x+1/3, z+1/4, y+1/4'
   'x+2/3, -z+1/12, -y+1/12'
   '-x+1/2, -z, -y+1/6'
   'x+5/6, z, y+1/6'
   'x+11/12, -z+1/6, y+1/12'
   '-x+5/12, z+1/6, -y+1/4'
   'z+1/12, y+1/12, -x+1/3'
   '-z+1/4, -y+1/4, x+2/3'
   'z+1/4, -y+1/6, x+3/4'
   '-z+1/12, y+1/6, -x+7/12'
   '-z, y+1/4, x+11/12'
   'z, -y+1/12, -x+5/12'
   '-z+1/6, -y, -x+1/2'
   'z+1/6, y, x+5/6'
   'x+5/6, y+1/6, z'
   '-x+1/2, -y+1/6, -z'
   '-x+5/12, -y+1/4, z+1/6'
   'x+11/12, y+1/12, -z+1/6'
   '-x+7/12, y, -z+1/4'
   'x+3/4, -y, z+1/12'
   'x+2/3, -y+1/12, -z+1/12'
   '-x+1/3, y+1/4, z+1/4'
   'z+1/6, x+5/6, y'
   '-z+1/6, -x+1/2, -y'
   'z, -x+5/12, -y+1/12'
   '-z, x+11/12, y+1/4'
   '-z+1/12, -x+7/12, y+1/6'
   'z+1/4, x+3/4, -y+1/6'
   '-z+1/4, x+2/3, -y+1/4'
   'z+1/12, -x+1/3, y+1/12'
   'y+1/6, z+1/6, x+2/3'
   '-y+1/6, -z+1/6, -x+1/3'
   '-y+1/4, z, -x+7/12'
   'y+1/12, -z, x+3/4'
   'y, -z+1/12, -x+5/12'
   '-y, z+1/4, x+11/12'
   '-y+1/12, -z+1/4, x+5/6'
   'y+1/4, z+1/12, -x+1/2'
   'y+1/12, x+11/12, -z+1/6'
   '-y+1/4, -x+5/12, z+1/6'
   '-y+1/6, -x+1/2, -z'
   'y+1/6, x+5/6, z'
   'y+1/4, -x+1/3, z+1/4'
   '-y+1/12, x+2/3, -z+1/12'
   '-y, x+3/4, z+1/12'
   'y, -x+7/12, -z+1/4'
   'x+3/4, z+1/4, -y+1/6'
   '-x+7/12, -z+1/12, y+1/6'
   '-x+1/3, z+1/12, y+1/12'
   'x+2/3, -z+1/4, -y+1/4'
   '-x+1/2, -z+1/6, -y'
   'x+5/6, z+1/6, y'
   'x+11/12, -z, y+1/4'
   '-x+5/12, z, -y+1/12'
   'z+1/12, y+1/4, -x+1/2'
   '-z+1/4, -y+1/12, x+5/6'
   'z+1/4, -y, x+11/12'
   '-z+1/12, y, -x+5/12'
   '-z, y+1/12, x+3/4'
   'z, -y+1/4, -x+7/12'
   '-z+1/6, -y+1/6, -x+1/3'
   'z+1/6, y+1/6, x+2/3'
   'x+2/3, y, z+1/3'
   '-x+1/3, -y, -z+2/3'
   '-x+7/12, -y+1/12, z+1/2'
   'x+3/4, y+1/4, -z+5/6'
   '-x+5/12, y+1/6, -z+11/12'
   'x+11/12, -y+1/6, z+5/12'
   'x+5/6, -y+1/4, -z+3/4'
   '-x+1/2, y+1/12, z+7/12'
   'z+1/3, x+2/3, y'
   '-z+2/3, -x+1/3, -y'
   'z+1/2, -x+7/12, -y+1/12'
   '-z+5/6, x+3/4, y+1/4'
   '-z+11/12, -x+5/12, y+1/6'
   'z+5/12, x+11/12, -y+1/6'
   '-z+3/4, x+5/6, -y+1/4'
   'z+7/12, -x+1/2, y+1/12'
   'y, z+1/3, x+2/3'
   '-y, -z+2/3, -x+1/3'
   '-y+1/12, z+1/2, -x+7/12'
   'y+1/4, -z+5/6, x+3/4'
   'y+1/6, -z+11/12, -x+5/12'
   '-y+1/6, z+5/12, x+11/12'
   '-y+1/4, -z+3/4, x+5/6'
   'y+1/12, z+7/12, -x+1/2'
   'y+1/4, x+3/4, -z+5/6'
   '-y+1/12, -x+7/12, z+1/2'
   '-y, -x+1/3, -z+2/3'
   'y, x+2/3, z+1/3'
   'y+1/12, -x+1/2, z+7/12'
   '-y+1/4, x+5/6, -z+3/4'
   '-y+1/6, x+11/12, z+5/12'
   'y+1/6, -x+5/12, -z+11/12'
   'x+11/12, z+5/12, -y+1/6'
   '-x+5/12, -z+11/12, y+1/6'
   '-x+1/2, z+7/12, y+1/12'
   'x+5/6, -z+3/4, -y+1/4'
   '-x+1/3, -z+2/3, -y'
   'x+2/3, z+1/3, y'
   'x+3/4, -z+5/6, y+1/4'
   '-x+7/12, z+1/2, -y+1/12'
   'z+7/12, y+1/12, -x+1/2'
   '-z+3/4, -y+1/4, x+5/6'
   'z+5/12, -y+1/6, x+11/12'
   '-z+11/12, y+1/6, -x+5/12'
   '-z+5/6, y+1/4, x+3/4'
   'z+1/2, -y+1/12, -x+7/12'
   '-z+2/3, -y, -x+1/3'
   'z+1/3, y, x+2/3'
   'x+2/3, y+1/6, z+1/2'
   '-x+1/3, -y+1/6, -z+5/6'
   '-x+7/12, -y+1/4, z+1/3'
   'x+3/4, y+1/12, -z+2/3'
   '-x+5/12, y, -z+3/4'
   'x+11/12, -y, z+7/12'
   'x+5/6, -y+1/12, -z+11/12'
   '-x+1/2, y+1/4, z+5/12'
   'z+1/3, x+5/6, y+1/6'
   '-z+2/3, -x+1/2, -y+1/6'
   'z+1/2, -x+5/12, -y+1/4'
   '-z+5/6, x+11/12, y+1/12'
   '-z+11/12, -x+7/12, y'
   'z+5/12, x+3/4, -y'
   '-z+3/4, x+2/3, -y+1/12'
   'z+7/12, -x+1/3, y+1/4'
   'y, z+1/2, x+5/6'
   '-y, -z+5/6, -x+1/2'
   '-y+1/12, z+1/3, -x+5/12'
   'y+1/4, -z+2/3, x+11/12'
   'y+1/6, -z+3/4, -x+7/12'
   '-y+1/6, z+7/12, x+3/4'
   '-y+1/4, -z+11/12, x+2/3'
   'y+1/12, z+5/12, -x+1/3'
   'y+1/4, x+11/12, -z+2/3'
   '-y+1/12, -x+5/12, z+1/3'
   '-y, -x+1/2, -z+5/6'
   'y, x+5/6, z+1/2'
   'y+1/12, -x+1/3, z+5/12'
   '-y+1/4, x+2/3, -z+11/12'
   '-y+1/6, x+3/4, z+7/12'
   'y+1/6, -x+7/12, -z+3/4'
   'x+11/12, z+7/12, -y'
   '-x+5/12, -z+3/4, y'
   '-x+1/2, z+5/12, y+1/4'
   'x+5/6, -z+11/12, -y+1/12'
   '-x+1/3, -z+5/6, -y+1/6'
   'x+2/3, z+1/2, y+1/6'
   'x+3/4, -z+2/3, y+1/12'
   '-x+7/12, z+1/3, -y+1/4'
   'z+7/12, y+1/4, -x+1/3'
   '-z+3/4, -y+1/12, x+2/3'
   'z+5/12, -y, x+3/4'
   '-z+11/12, y, -x+7/12'
   '-z+5/6, y+1/12, x+11/12'
   'z+1/2, -y+1/4, -x+5/12'
   '-z+2/3, -y+1/6, -x+1/2'
   'z+1/3, y+1/6, x+5/6'
   'x+5/6, y, z+1/2'
   '-x+1/2, -y, -z+5/6'
   '-x+5/12, -y+1/12, z+1/3'
   'x+11/12, y+1/4, -z+2/3'
   '-x+7/12, y+1/6, -z+3/4'
   'x+3/4, -y+1/6, z+7/12'
   'x+2/3, -y+1/4, -z+11/12'
   '-x+1/3, y+1/12, z+5/12'
   'z+1/2, x+2/3, y+1/6'
   '-z+5/6, -x+1/3, -y+1/6'
   'z+1/3, -x+7/12, -y+1/4'
   '-z+2/3, x+3/4, y+1/12'
   '-z+3/4, -x+5/12, y'
   'z+7/12, x+11/12, -y'
   '-z+11/12, x+5/6, -y+1/12'
   'z+5/12, -x+1/2, y+1/4'
   'y+1/6, z+1/3, x+5/6'
   '-y+1/6, -z+2/3, -x+1/2'
   '-y+1/4, z+1/2, -x+5/12'
   'y+1/12, -z+5/6, x+11/12'
   'y, -z+11/12, -x+7/12'
   '-y, z+5/12, x+3/4'
   '-y+1/12, -z+3/4, x+2/3'
   'y+1/4, z+7/12, -x+1/3'
   'y+1/12, x+3/4, -z+2/3'
   '-y+1/4, -x+7/12, z+1/3'
   '-y+1/6, -x+1/3, -z+5/6'
   'y+1/6, x+2/3, z+1/2'
   'y+1/4, -x+1/2, z+5/12'
   '-y+1/12, x+5/6, -z+11/12'
   '-y, x+11/12, z+7/12'
   'y, -x+5/12, -z+3/4'
   'x+3/4, z+5/12, -y'
   '-x+7/12, -z+11/12, y'
   '-x+1/3, z+7/12, y+1/4'
   'x+2/3, -z+3/4, -y+1/12'
   '-x+1/2, -z+2/3, -y+1/6'
   'x+5/6, z+1/3, y+1/6'
   'x+11/12, -z+5/6, y+1/12'
   '-x+5/12, z+1/2, -y+1/4'
   'z+5/12, y+1/12, -x+1/3'
   '-z+11/12, -y+1/4, x+2/3'
   'z+7/12, -y+1/6, x+3/4'
   '-z+3/4, y+1/6, -x+7/12'
   '-z+2/3, y+1/4, x+11/12'
   'z+1/3, -y+1/12, -x+5/12'
   '-z+5/6, -y, -x+1/2'
   'z+1/2, y, x+5/6'
   'x+5/6, y+1/6, z+1/3'
   '-x+1/2, -y+1/6, -z+2/3'
   '-x+5/12, -y+1/4, z+1/2'
   'x+11/12, y+1/12, -z+5/6'
   '-x+7/12, y, -z+11/12'
   'x+3/4, -y, z+5/12'
   'x+2/3, -y+1/12, -z+3/4'
   '-x+1/3, y+1/4, z+7/12'
   'z+1/2, x+5/6, y'
   '-z+5/6, -x+1/2, -y'
   'z+1/3, -x+5/12, -y+1/12'
   '-z+2/3, x+11/12, y+1/4'
   '-z+3/4, -x+7/12, y+1/6'
   'z+7/12, x+3/4, -y+1/6'
   '-z+11/12, x+2/3, -y+1/4'
   'z+5/12, -x+1/3, y+1/12'
   'y+1/6, z+1/2, x+2/3'
   '-y+1/6, -z+5/6, -x+1/3'
   '-y+1/4, z+1/3, -x+7/12'
   'y+1/12, -z+2/3, x+3/4'
   'y, -z+3/4, -x+5/12'
   '-y, z+7/12, x+11/12'
   '-y+1/12, -z+11/12, x+5/6'
   'y+1/4, z+5/12, -x+1/2'
   'y+1/12, x+11/12, -z+5/6'
   '-y+1/4, -x+5/12, z+1/2'
   '-y+1/6, -x+1/2, -z+2/3'
   'y+1/6, x+5/6, z+1/3'
   'y+1/4, -x+1/3, z+7/12'
   '-y+1/12, x+2/3, -z+3/4'
   '-y, x+3/4, z+5/12'
   'y, -x+7/12, -z+11/12'
   'x+3/4, z+7/12, -y+1/6'
   '-x+7/12, -z+3/4, y+1/6'
   '-x+1/3, z+5/12, y+1/12'
   'x+2/3, -z+11/12, -y+1/4'
   '-x+1/2, -z+5/6, -y'
   'x+5/6, z+1/2, y'
   'x+11/12, -z+2/3, y+1/4'
   '-x+5/12, z+1/3, -y+1/12'
   'z+5/12, y+1/4, -x+1/2'
   '-z+11/12, -y+1/12, x+5/6'
   'z+7/12, -y, x+11/12'
   '-z+3/4, y, -x+5/12'
   '-z+2/3, y+1/12, x+3/4'
   'z+1/3, -y+1/4, -x+7/12'
   '-z+5/6, -y+1/6, -x+1/3'
   'z+1/2, y+1/6, x+2/3'
   'x+2/3, y, z+2/3'
   '-x+1/3, -y, -z+1/3'
   '-x+7/12, -y+1/12, z+5/6'
   'x+3/4, y+1/4, -z+1/2'
   '-x+5/12, y+1/6, -z+7/12'
   'x+11/12, -y+1/6, z+3/4'
   'x+5/6, -y+1/4, -z+5/12'
   '-x+1/2, y+1/12, z+11/12'
   'z+2/3, x+2/3, y'
   '-z+1/3, -x+1/3, -y'
   'z+5/6, -x+7/12, -y+1/12'
   '-z+1/2, x+3/4, y+1/4'
   '-z+7/12, -x+5/12, y+1/6'
   'z+3/4, x+11/12, -y+1/6'
   '-z+5/12, x+5/6, -y+1/4'
   'z+11/12, -x+1/2, y+1/12'
   'y, z+2/3, x+2/3'
   '-y, -z+1/3, -x+1/3'
   '-y+1/12, z+5/6, -x+7/12'
   'y+1/4, -z+1/2, x+3/4'
   'y+1/6, -z+7/12, -x+5/12'
   '-y+1/6, z+3/4, x+11/12'
   '-y+1/4, -z+5/12, x+5/6'
   'y+1/12, z+11/12, -x+1/2'
   'y+1/4, x+3/4, -z+1/2'
   '-y+1/12, -x+7/12, z+5/6'
   '-y, -x+1/3, -z+1/3'
   'y, x+2/3, z+2/3'
   'y+1/12, -x+1/2, z+11/12'
   '-y+1/4, x+5/6, -z+5/12'
   '-y+1/6, x+11/12, z+3/4'
   'y+1/6, -x+5/12, -z+7/12'
   'x+11/12, z+3/4, -y+1/6'
   '-x+5/12, -z+7/12, y+1/6'
   '-x+1/2, z+11/12, y+1/12'
   'x+5/6, -z+5/12, -y+1/4'
   '-x+1/3, -z+1/3, -y'
   'x+2/3, z+2/3, y'
   'x+3/4, -z+1/2, y+1/4'
   '-x+7/12, z+5/6, -y+1/12'
   'z+11/12, y+1/12, -x+1/2'
   '-z+5/12, -y+1/4, x+5/6'
   'z+3/4, -y+1/6, x+11/12'
   '-z+7/12, y+1/6, -x+5/12'
   '-z+1/2, y+1/4, x+3/4'
   'z+5/6, -y+1/12, -x+7/12'
   '-z+1/3, -y, -x+1/3'
   'z+2/3, y, x+2/3'
   'x+2/3, y+1/6, z+5/6'
   '-x+1/3, -y+1/6, -z+1/2'
   '-x+7/12, -y+1/4, z+2/3'
   'x+3/4, y+1/12, -z+1/3'
   '-x+5/12, y, -z+5/12'
   'x+11/12, -y, z+11/12'
   'x+5/6, -y+1/12, -z+7/12'
   '-x+1/2, y+1/4, z+3/4'
   'z+2/3, x+5/6, y+1/6'
   '-z+1/3, -x+1/2, -y+1/6'
   'z+5/6, -x+5/12, -y+1/4'
   '-z+1/2, x+11/12, y+1/12'
   '-z+7/12, -x+7/12, y'
   'z+3/4, x+3/4, -y'
   '-z+5/12, x+2/3, -y+1/12'
   'z+11/12, -x+1/3, y+1/4'
   'y, z+5/6, x+5/6'
   '-y, -z+1/2, -x+1/2'
   '-y+1/12, z+2/3, -x+5/12'
   'y+1/4, -z+1/3, x+11/12'
   'y+1/6, -z+5/12, -x+7/12'
   '-y+1/6, z+11/12, x+3/4'
   '-y+1/4, -z+7/12, x+2/3'
   'y+1/12, z+3/4, -x+1/3'
   'y+1/4, x+11/12, -z+1/3'
   '-y+1/12, -x+5/12, z+2/3'
   '-y, -x+1/2, -z+1/2'
   'y, x+5/6, z+5/6'
   'y+1/12, -x+1/3, z+3/4'
   '-y+1/4, x+2/3, -z+7/12'
   '-y+1/6, x+3/4, z+11/12'
   'y+1/6, -x+7/12, -z+5/12'
   'x+11/12, z+11/12, -y'
   '-x+5/12, -z+5/12, y'
   '-x+1/2, z+3/4, y+1/4'
   'x+5/6, -z+7/12, -y+1/12'
   '-x+1/3, -z+1/2, -y+1/6'
   'x+2/3, z+5/6, y+1/6'
   'x+3/4, -z+1/3, y+1/12'
   '-x+7/12, z+2/3, -y+1/4'
   'z+11/12, y+1/4, -x+1/3'
   '-z+5/12, -y+1/12, x+2/3'
   'z+3/4, -y, x+3/4'
   '-z+7/12, y, -x+7/12'
   '-z+1/2, y+1/12, x+11/12'
   'z+5/6, -y+1/4, -x+5/12'
   '-z+1/3, -y+1/6, -x+1/2'
   'z+2/3, y+1/6, x+5/6'
   'x+5/6, y, z+5/6'
   '-x+1/2, -y, -z+1/2'
   '-x+5/12, -y+1/12, z+2/3'
   'x+11/12, y+1/4, -z+1/3'
   '-x+7/12, y+1/6, -z+5/12'
   'x+3/4, -y+1/6, z+11/12'
   'x+2/3, -y+1/4, -z+7/12'
   '-x+1/3, y+1/12, z+3/4'
   'z+5/6, x+2/3, y+1/6'
   '-z+1/2, -x+1/3, -y+1/6'
   'z+2/3, -x+7/12, -y+1/4'
   '-z+1/3, x+3/4, y+1/12'
   '-z+5/12, -x+5/12, y'
   'z+11/12, x+11/12, -y'
   '-z+7/12, x+5/6, -y+1/12'
   'z+3/4, -x+1/2, y+1/4'
   'y+1/6, z+2/3, x+5/6'
   '-y+1/6, -z+1/3, -x+1/2'
   '-y+1/4, z+5/6, -x+5/12'
   'y+1/12, -z+1/2, x+11/12'
   'y, -z+7/12, -x+7/12'
   '-y, z+3/4, x+3/4'
   '-y+1/12, -z+5/12, x+2/3'
   'y+1/4, z+11/12, -x+1/3'
   'y+1/12, x+3/4, -z+1/3'
   '-y+1/4, -x+7/12, z+2/3'
   '-y+1/6, -x+1/3, -z+1/2'
   'y+1/6, x+2/3, z+5/6'
   'y+1/4, -x+1/2, z+3/4'
   '-y+1/12, x+5/6, -z+7/12'
   '-y, x+11/12, z+11/12'
   'y, -x+5/12, -z+5/12'
   'x+3/4, z+3/4, -y'
   '-x+7/12, -z+7/12, y'
   '-x+1/3, z+11/12, y+1/4'
   'x+2/3, -z+5/12, -y+1/12'
   '-x+1/2, -z+1/3, -y+1/6'
   'x+5/6, z+2/3, y+1/6'
   'x+11/12, -z+1/2, y+1/12'
   '-x+5/12, z+5/6, -y+1/4'
   'z+3/4, y+1/12, -x+1/3'
   '-z+7/12, -y+1/4, x+2/3'
   'z+11/12, -y+1/6, x+3/4'
   '-z+5/12, y+1/6, -x+7/12'
   '-z+1/3, y+1/4, x+11/12'
   'z+2/3, -y+1/12, -x+5/12'
   '-z+1/2, -y, -x+1/2'
   'z+5/6, y, x+5/6'
   'x+5/6, y+1/6, z+2/3'
   '-x+1/2, -y+1/6, -z+1/3'
   '-x+5/12, -y+1/4, z+5/6'
   'x+11/12, y+1/12, -z+1/2'
   '-x+7/12, y, -z+7/12'
   'x+3/4, -y, z+3/4'
   'x+2/3, -y+1/12, -z+5/12'
   '-x+1/3, y+1/4, z+11/12'
   'z+5/6, x+5/6, y'
   '-z+1/2, -x+1/2, -y'
   'z+2/3, -x+5/12, -y+1/12'
   '-z+1/3, x+11/12, y+1/4'
   '-z+5/12, -x+7/12, y+1/6'
   'z+11/12, x+3/4, -y+1/6'
   '-z+7/12, x+2/3, -y+1/4'
   'z+3/4, -x+1/3, y+1/12'
   'y+1/6, z+5/6, x+2/3'
   '-y+1/6, -z+1/2, -x+1/3'
   '-y+1/4, z+2/3, -x+7/12'
   'y+1/12, -z+1/3, x+3/4'
   'y, -z+5/12, -x+5/12'
   '-y, z+11/12, x+11/12'
   '-y+1/12, -z+7/12, x+5/6'
   'y+1/4, z+3/4, -x+1/2'
   'y+1/12, x+11/12, -z+1/2'
   '-y+1/4, -x+5/12, z+5/6'
   '-y+1/6, -x+1/2, -z+1/3'
   'y+1/6, x+5/6, z+2/3'
   'y+1/4, -x+1/3, z+11/12'
   '-y+1/12, x+2/3, -z+5/12'
   '-y, x+3/4, z+3/4'
   'y, -x+7/12, -z+7/12'
   'x+3/4, z+11/12, -y+1/6'
   '-x+7/12, -z+5/12, y+1/6'
   '-x+1/3, z+3/4, y+1/12'
   'x+2/3, -z+7/12, -y+1/4'
   '-x+1/2, -z+1/2, -y'
   'x+5/6, z+5/6, y'
   'x+11/12, -z+1/3, y+1/4'
   '-x+5/12, z+2/3, -y+1/12'
   'z+3/4, y+1/4, -x+1/2'
   '-z+7/12, -y+1/12, x+5/6'
   'z+11/12, -y, x+11/12'
   '-z+5/12, y, -x+5/12'
   '-z+1/3, y+1/12, x+3/4'
   'z+2/3, -y+1/4, -x+7/12'
   '-z+1/2, -y+1/6, -x+1/3'
   'z+5/6, y+1/6, x+2/3'
   'x+2/3, y+1/3, z'
   '-x+1/3, -y+2/3, -z'
   '-x+7/12, -y+3/4, z+1/6'
   'x+3/4, y+7/12, -z+1/6'
   '-x+5/12, y+1/2, -z+1/4'
   'x+11/12, -y+5/6, z+1/12'
   'x+5/6, -y+11/12, -z+1/12'
   '-x+1/2, y+5/12, z+1/4'
   'z, x+2/3, y+1/3'
   '-z, -x+1/3, -y+2/3'
   'z+1/6, -x+7/12, -y+3/4'
   '-z+1/6, x+3/4, y+7/12'
   '-z+1/4, -x+5/12, y+1/2'
   'z+1/12, x+11/12, -y+5/6'
   '-z+1/12, x+5/6, -y+11/12'
   'z+1/4, -x+1/2, y+5/12'
   'y+1/3, z, x+2/3'
   '-y+2/3, -z, -x+1/3'
   '-y+3/4, z+1/6, -x+7/12'
   'y+7/12, -z+1/6, x+3/4'
   'y+1/2, -z+1/4, -x+5/12'
   '-y+5/6, z+1/12, x+11/12'
   '-y+11/12, -z+1/12, x+5/6'
   'y+5/12, z+1/4, -x+1/2'
   'y+7/12, x+3/4, -z+1/6'
   '-y+3/4, -x+7/12, z+1/6'
   '-y+2/3, -x+1/3, -z'
   'y+1/3, x+2/3, z'
   'y+5/12, -x+1/2, z+1/4'
   '-y+11/12, x+5/6, -z+1/12'
   '-y+5/6, x+11/12, z+1/12'
   'y+1/2, -x+5/12, -z+1/4'
   'x+11/12, z+1/12, -y+5/6'
   '-x+5/12, -z+1/4, y+1/2'
   '-x+1/2, z+1/4, y+5/12'
   'x+5/6, -z+1/12, -y+11/12'
   '-x+1/3, -z, -y+2/3'
   'x+2/3, z, y+1/3'
   'x+3/4, -z+1/6, y+7/12'
   '-x+7/12, z+1/6, -y+3/4'
   'z+1/4, y+5/12, -x+1/2'
   '-z+1/12, -y+11/12, x+5/6'
   'z+1/12, -y+5/6, x+11/12'
   '-z+1/4, y+1/2, -x+5/12'
   '-z+1/6, y+7/12, x+3/4'
   'z+1/6, -y+3/4, -x+7/12'
   '-z, -y+2/3, -x+1/3'
   'z, y+1/3, x+2/3'
   'x+2/3, y+1/2, z+1/6'
   '-x+1/3, -y+5/6, -z+1/6'
   '-x+7/12, -y+11/12, z'
   'x+3/4, y+5/12, -z'
   '-x+5/12, y+1/3, -z+1/12'
   'x+11/12, -y+2/3, z+1/4'
   'x+5/6, -y+3/4, -z+1/4'
   '-x+1/2, y+7/12, z+1/12'
   'z, x+5/6, y+1/2'
   '-z, -x+1/2, -y+5/6'
   'z+1/6, -x+5/12, -y+11/12'
   '-z+1/6, x+11/12, y+5/12'
   '-z+1/4, -x+7/12, y+1/3'
   'z+1/12, x+3/4, -y+2/3'
   '-z+1/12, x+2/3, -y+3/4'
   'z+1/4, -x+1/3, y+7/12'
   'y+1/3, z+1/6, x+5/6'
   '-y+2/3, -z+1/6, -x+1/2'
   '-y+3/4, z, -x+5/12'
   'y+7/12, -z, x+11/12'
   'y+1/2, -z+1/12, -x+7/12'
   '-y+5/6, z+1/4, x+3/4'
   '-y+11/12, -z+1/4, x+2/3'
   'y+5/12, z+1/12, -x+1/3'
   'y+7/12, x+11/12, -z'
   '-y+3/4, -x+5/12, z'
   '-y+2/3, -x+1/2, -z+1/6'
   'y+1/3, x+5/6, z+1/6'
   'y+5/12, -x+1/3, z+1/12'
   '-y+11/12, x+2/3, -z+1/4'
   '-y+5/6, x+3/4, z+1/4'
   'y+1/2, -x+7/12, -z+1/12'
   'x+11/12, z+1/4, -y+2/3'
   '-x+5/12, -z+1/12, y+1/3'
   '-x+1/2, z+1/12, y+7/12'
   'x+5/6, -z+1/4, -y+3/4'
   '-x+1/3, -z+1/6, -y+5/6'
   'x+2/3, z+1/6, y+1/2'
   'x+3/4, -z, y+5/12'
   '-x+7/12, z, -y+11/12'
   'z+1/4, y+7/12, -x+1/3'
   '-z+1/12, -y+3/4, x+2/3'
   'z+1/12, -y+2/3, x+3/4'
   '-z+1/4, y+1/3, -x+7/12'
   '-z+1/6, y+5/12, x+11/12'
   'z+1/6, -y+11/12, -x+5/12'
   '-z, -y+5/6, -x+1/2'
   'z, y+1/2, x+5/6'
   'x+5/6, y+1/3, z+1/6'
   '-x+1/2, -y+2/3, -z+1/6'
   '-x+5/12, -y+3/4, z'
   'x+11/12, y+7/12, -z'
   '-x+7/12, y+1/2, -z+1/12'
   'x+3/4, -y+5/6, z+1/4'
   'x+2/3, -y+11/12, -z+1/4'
   '-x+1/3, y+5/12, z+1/12'
   'z+1/6, x+2/3, y+1/2'
   '-z+1/6, -x+1/3, -y+5/6'
   'z, -x+7/12, -y+11/12'
   '-z, x+3/4, y+5/12'
   '-z+1/12, -x+5/12, y+1/3'
   'z+1/4, x+11/12, -y+2/3'
   '-z+1/4, x+5/6, -y+3/4'
   'z+1/12, -x+1/2, y+7/12'
   'y+1/2, z, x+5/6'
   '-y+5/6, -z, -x+1/2'
   '-y+11/12, z+1/6, -x+5/12'
   'y+5/12, -z+1/6, x+11/12'
   'y+1/3, -z+1/4, -x+7/12'
   '-y+2/3, z+1/12, x+3/4'
   '-y+3/4, -z+1/12, x+2/3'
   'y+7/12, z+1/4, -x+1/3'
   'y+5/12, x+3/4, -z'
   '-y+11/12, -x+7/12, z'
   '-y+5/6, -x+1/3, -z+1/6'
   'y+1/2, x+2/3, z+1/6'
   'y+7/12, -x+1/2, z+1/12'
   '-y+3/4, x+5/6, -z+1/4'
   '-y+2/3, x+11/12, z+1/4'
   'y+1/3, -x+5/12, -z+1/12'
   'x+3/4, z+1/12, -y+2/3'
   '-x+7/12, -z+1/4, y+1/3'
   '-x+1/3, z+1/4, y+7/12'
   'x+2/3, -z+1/12, -y+3/4'
   '-x+1/2, -z, -y+5/6'
   'x+5/6, z, y+1/2'
   'x+11/12, -z+1/6, y+5/12'
   '-x+5/12, z+1/6, -y+11/12'
   'z+1/12, y+5/12, -x+1/3'
   '-z+1/4, -y+11/12, x+2/3'
   'z+1/4, -y+5/6, x+3/4'
   '-z+1/12, y+1/2, -x+7/12'
   '-z, y+7/12, x+11/12'
   'z, -y+3/4, -x+5/12'
   '-z+1/6, -y+2/3, -x+1/2'
   'z+1/6, y+1/3, x+5/6'
   'x+5/6, y+1/2, z'
   '-x+1/2, -y+5/6, -z'
   '-x+5/12, -y+11/12, z+1/6'
   'x+11/12, y+5/12, -z+1/6'
   '-x+7/12, y+1/3, -z+1/4'
   'x+3/4, -y+2/3, z+1/12'
   'x+2/3, -y+3/4, -z+1/12'
   '-x+1/3, y+7/12, z+1/4'
   'z+1/6, x+5/6, y+1/3'
   '-z+1/6, -x+1/2, -y+2/3'
   'z, -x+5/12, -y+3/4'
   '-z, x+11/12, y+7/12'
   '-z+1/12, -x+7/12, y+1/2'
   'z+1/4, x+3/4, -y+5/6'
   '-z+1/4, x+2/3, -y+11/12'
   'z+1/12, -x+1/3, y+5/12'
   'y+1/2, z+1/6, x+2/3'
   '-y+5/6, -z+1/6, -x+1/3'
   '-y+11/12, z, -x+7/12'
   'y+5/12, -z, x+3/4'
   'y+1/3, -z+1/12, -x+5/12'
   '-y+2/3, z+1/4, x+11/12'
   '-y+3/4, -z+1/4, x+5/6'
   'y+7/12, z+1/12, -x+1/2'
   'y+5/12, x+11/12, -z+1/6'
   '-y+11/12, -x+5/12, z+1/6'
   '-y+5/6, -x+1/2, -z'
   'y+1/2, x+5/6, z'
   'y+7/12, -x+1/3, z+1/4'
   '-y+3/4, x+2/3, -z+1/12'
   '-y+2/3, x+3/4, z+1/12'
   'y+1/3, -x+7/12, -z+1/4'
   'x+3/4, z+1/4, -y+5/6'
   '-x+7/12, -z+1/12, y+1/2'
   '-x+1/3, z+1/12, y+5/12'
   'x+2/3, -z+1/4, -y+11/12'
   '-x+1/2, -z+1/6, -y+2/3'
   'x+5/6, z+1/6, y+1/3'
   'x+11/12, -z, y+7/12'
   '-x+5/12, z, -y+3/4'
   'z+1/12, y+7/12, -x+1/2'
   '-z+1/4, -y+3/4, x+5/6'
   'z+1/4, -y+2/3, x+11/12'
   '-z+1/12, y+1/3, -x+5/12'
   '-z, y+5/12, x+3/4'
   'z, -y+11/12, -x+7/12'
   '-z+1/6, -y+5/6, -x+1/3'
   'z+1/6, y+1/2, x+2/3'
   'x+2/3, y+1/3, z+1/3'
   '-x+1/3, -y+2/3, -z+2/3'
   '-x+7/12, -y+3/4, z+1/2'
   'x+3/4, y+7/12, -z+5/6'
   '-x+5/12, y+1/2, -z+11/12'
   'x+11/12, -y+5/6, z+5/12'
   'x+5/6, -y+11/12, -z+3/4'
   '-x+1/2, y+5/12, z+7/12'
   'z+1/3, x+2/3, y+1/3'
   '-z+2/3, -x+1/3, -y+2/3'
   'z+1/2, -x+7/12, -y+3/4'
   '-z+5/6, x+3/4, y+7/12'
   '-z+11/12, -x+5/12, y+1/2'
   'z+5/12, x+11/12, -y+5/6'
   '-z+3/4, x+5/6, -y+11/12'
   'z+7/12, -x+1/2, y+5/12'
   'y+1/3, z+1/3, x+2/3'
   '-y+2/3, -z+2/3, -x+1/3'
   '-y+3/4, z+1/2, -x+7/12'
   'y+7/12, -z+5/6, x+3/4'
   'y+1/2, -z+11/12, -x+5/12'
   '-y+5/6, z+5/12, x+11/12'
   '-y+11/12, -z+3/4, x+5/6'
   'y+5/12, z+7/12, -x+1/2'
   'y+7/12, x+3/4, -z+5/6'
   '-y+3/4, -x+7/12, z+1/2'
   '-y+2/3, -x+1/3, -z+2/3'
   'y+1/3, x+2/3, z+1/3'
   'y+5/12, -x+1/2, z+7/12'
   '-y+11/12, x+5/6, -z+3/4'
   '-y+5/6, x+11/12, z+5/12'
   'y+1/2, -x+5/12, -z+11/12'
   'x+11/12, z+5/12, -y+5/6'
   '-x+5/12, -z+11/12, y+1/2'
   '-x+1/2, z+7/12, y+5/12'
   'x+5/6, -z+3/4, -y+11/12'
   '-x+1/3, -z+2/3, -y+2/3'
   'x+2/3, z+1/3, y+1/3'
   'x+3/4, -z+5/6, y+7/12'
   '-x+7/12, z+1/2, -y+3/4'
   'z+7/12, y+5/12, -x+1/2'
   '-z+3/4, -y+11/12, x+5/6'
   'z+5/12, -y+5/6, x+11/12'
   '-z+11/12, y+1/2, -x+5/12'
   '-z+5/6, y+7/12, x+3/4'
   'z+1/2, -y+3/4, -x+7/12'
   '-z+2/3, -y+2/3, -x+1/3'
   'z+1/3, y+1/3, x+2/3'
   'x+2/3, y+1/2, z+1/2'
   '-x+1/3, -y+5/6, -z+5/6'
   '-x+7/12, -y+11/12, z+1/3'
   'x+3/4, y+5/12, -z+2/3'
   '-x+5/12, y+1/3, -z+3/4'
   'x+11/12, -y+2/3, z+7/12'
   'x+5/6, -y+3/4, -z+11/12'
   '-x+1/2, y+7/12, z+5/12'
   'z+1/3, x+5/6, y+1/2'
   '-z+2/3, -x+1/2, -y+5/6'
   'z+1/2, -x+5/12, -y+11/12'
   '-z+5/6, x+11/12, y+5/12'
   '-z+11/12, -x+7/12, y+1/3'
   'z+5/12, x+3/4, -y+2/3'
   '-z+3/4, x+2/3, -y+3/4'
   'z+7/12, -x+1/3, y+7/12'
   'y+1/3, z+1/2, x+5/6'
   '-y+2/3, -z+5/6, -x+1/2'
   '-y+3/4, z+1/3, -x+5/12'
   'y+7/12, -z+2/3, x+11/12'
   'y+1/2, -z+3/4, -x+7/12'
   '-y+5/6, z+7/12, x+3/4'
   '-y+11/12, -z+11/12, x+2/3'
   'y+5/12, z+5/12, -x+1/3'
   'y+7/12, x+11/12, -z+2/3'
   '-y+3/4, -x+5/12, z+1/3'
   '-y+2/3, -x+1/2, -z+5/6'
   'y+1/3, x+5/6, z+1/2'
   'y+5/12, -x+1/3, z+5/12'
   '-y+11/12, x+2/3, -z+11/12'
   '-y+5/6, x+3/4, z+7/12'
   'y+1/2, -x+7/12, -z+3/4'
   'x+11/12, z+7/12, -y+2/3'
   '-x+5/12, -z+3/4, y+1/3'
   '-x+1/2, z+5/12, y+7/12'
   'x+5/6, -z+11/12, -y+3/4'
   '-x+1/3, -z+5/6, -y+5/6'
   'x+2/3, z+1/2, y+1/2'
   'x+3/4, -z+2/3, y+5/12'
   '-x+7/12, z+1/3, -y+11/12'
   'z+7/12, y+7/12, -x+1/3'
   '-z+3/4, -y+3/4, x+2/3'
   'z+5/12, -y+2/3, x+3/4'
   '-z+11/12, y+1/3, -x+7/12'
   '-z+5/6, y+5/12, x+11/12'
   'z+1/2, -y+11/12, -x+5/12'
   '-z+2/3, -y+5/6, -x+1/2'
   'z+1/3, y+1/2, x+5/6'
   'x+5/6, y+1/3, z+1/2'
   '-x+1/2, -y+2/3, -z+5/6'
   '-x+5/12, -y+3/4, z+1/3'
   'x+11/12, y+7/12, -z+2/3'
   '-x+7/12, y+1/2, -z+3/4'
   'x+3/4, -y+5/6, z+7/12'
   'x+2/3, -y+11/12, -z+11/12'
   '-x+1/3, y+5/12, z+5/12'
   'z+1/2, x+2/3, y+1/2'
   '-z+5/6, -x+1/3, -y+5/6'
   'z+1/3, -x+7/12, -y+11/12'
   '-z+2/3, x+3/4, y+5/12'
   '-z+3/4, -x+5/12, y+1/3'
   'z+7/12, x+11/12, -y+2/3'
   '-z+11/12, x+5/6, -y+3/4'
   'z+5/12, -x+1/2, y+7/12'
   'y+1/2, z+1/3, x+5/6'
   '-y+5/6, -z+2/3, -x+1/2'
   '-y+11/12, z+1/2, -x+5/12'
   'y+5/12, -z+5/6, x+11/12'
   'y+1/3, -z+11/12, -x+7/12'
   '-y+2/3, z+5/12, x+3/4'
   '-y+3/4, -z+3/4, x+2/3'
   'y+7/12, z+7/12, -x+1/3'
   'y+5/12, x+3/4, -z+2/3'
   '-y+11/12, -x+7/12, z+1/3'
   '-y+5/6, -x+1/3, -z+5/6'
   'y+1/2, x+2/3, z+1/2'
   'y+7/12, -x+1/2, z+5/12'
   '-y+3/4, x+5/6, -z+11/12'
   '-y+2/3, x+11/12, z+7/12'
   'y+1/3, -x+5/12, -z+3/4'
   'x+3/4, z+5/12, -y+2/3'
   '-x+7/12, -z+11/12, y+1/3'
   '-x+1/3, z+7/12, y+7/12'
   'x+2/3, -z+3/4, -y+3/4'
   '-x+1/2, -z+2/3, -y+5/6'
   'x+5/6, z+1/3, y+1/2'
   'x+11/12, -z+5/6, y+5/12'
   '-x+5/12, z+1/2, -y+11/12'
   'z+5/12, y+5/12, -x+1/3'
   '-z+11/12, -y+11/12, x+2/3'
   'z+7/12, -y+5/6, x+3/4'
   '-z+3/4, y+1/2, -x+7/12'
   '-z+2/3, y+7/12, x+11/12'
   'z+1/3, -y+3/4, -x+5/12'
   '-z+5/6, -y+2/3, -x+1/2'
   'z+1/2, y+1/3, x+5/6'
   'x+5/6, y+1/2, z+1/3'
   '-x+1/2, -y+5/6, -z+2/3'
   '-x+5/12, -y+11/12, z+1/2'
   'x+11/12, y+5/12, -z+5/6'
   '-x+7/12, y+1/3, -z+11/12'
   'x+3/4, -y+2/3, z+5/12'
   'x+2/3, -y+3/4, -z+3/4'
   '-x+1/3, y+7/12, z+7/12'
   'z+1/2, x+5/6, y+1/3'
   '-z+5/6, -x+1/2, -y+2/3'
   'z+1/3, -x+5/12, -y+3/4'
   '-z+2/3, x+11/12, y+7/12'
   '-z+3/4, -x+7/12, y+1/2'
   'z+7/12, x+3/4, -y+5/6'
   '-z+11/12, x+2/3, -y+11/12'
   'z+5/12, -x+1/3, y+5/12'
   'y+1/2, z+1/2, x+2/3'
   '-y+5/6, -z+5/6, -x+1/3'
   '-y+11/12, z+1/3, -x+7/12'
   'y+5/12, -z+2/3, x+3/4'
   'y+1/3, -z+3/4, -x+5/12'
   '-y+2/3, z+7/12, x+11/12'
   '-y+3/4, -z+11/12, x+5/6'
   'y+7/12, z+5/12, -x+1/2'
   'y+5/12, x+11/12, -z+5/6'
   '-y+11/12, -x+5/12, z+1/2'
   '-y+5/6, -x+1/2, -z+2/3'
   'y+1/2, x+5/6, z+1/3'
   'y+7/12, -x+1/3, z+7/12'
   '-y+3/4, x+2/3, -z+3/4'
   '-y+2/3, x+3/4, z+5/12'
   'y+1/3, -x+7/12, -z+11/12'
   'x+3/4, z+7/12, -y+5/6'
   '-x+7/12, -z+3/4, y+1/2'
   '-x+1/3, z+5/12, y+5/12'
   'x+2/3, -z+11/12, -y+11/12'
   '-x+1/2, -z+5/6, -y+2/3'
   'x+5/6, z+1/2, y+1/3'
   'x+11/12, -z+2/3, y+7/12'
   '-x+5/12, z+1/3, -y+3/4'
   'z+5/12, y+7/12, -x+1/2'
   '-z+11/12, -y+3/4, x+5/6'
   'z+7/12, -y+2/3, x+11/12'
   '-z+3/4, y+1/3, -x+5/12'
   '-z+2/3, y+5/12, x+3/4'
   'z+1/3, -y+11/12, -x+7/12'
   '-z+5/6, -y+5/6, -x+1/3'
   'z+1/2, y+1/2, x+2/3'
   'x+2/3, y+1/3, z+2/3'
   '-x+1/3, -y+2/3, -z+1/3'
   '-x+7/12, -y+3/4, z+5/6'
   'x+3/4, y+7/12, -z+1/2'
   '-x+5/12, y+1/2, -z+7/12'
   'x+11/12, -y+5/6, z+3/4'
   'x+5/6, -y+11/12, -z+5/12'
   '-x+1/2, y+5/12, z+11/12'
   'z+2/3, x+2/3, y+1/3'
   '-z+1/3, -x+1/3, -y+2/3'
   'z+5/6, -x+7/12, -y+3/4'
   '-z+1/2, x+3/4, y+7/12'
   '-z+7/12, -x+5/12, y+1/2'
   'z+3/4, x+11/12, -y+5/6'
   '-z+5/12, x+5/6, -y+11/12'
   'z+11/12, -x+1/2, y+5/12'
   'y+1/3, z+2/3, x+2/3'
   '-y+2/3, -z+1/3, -x+1/3'
   '-y+3/4, z+5/6, -x+7/12'
   'y+7/12, -z+1/2, x+3/4'
   'y+1/2, -z+7/12, -x+5/12'
   '-y+5/6, z+3/4, x+11/12'
   '-y+11/12, -z+5/12, x+5/6'
   'y+5/12, z+11/12, -x+1/2'
   'y+7/12, x+3/4, -z+1/2'
   '-y+3/4, -x+7/12, z+5/6'
   '-y+2/3, -x+1/3, -z+1/3'
   'y+1/3, x+2/3, z+2/3'
   'y+5/12, -x+1/2, z+11/12'
   '-y+11/12, x+5/6, -z+5/12'
   '-y+5/6, x+11/12, z+3/4'
   'y+1/2, -x+5/12, -z+7/12'
   'x+11/12, z+3/4, -y+5/6'
   '-x+5/12, -z+7/12, y+1/2'
   '-x+1/2, z+11/12, y+5/12'
   'x+5/6, -z+5/12, -y+11/12'
   '-x+1/3, -z+1/3, -y+2/3'
   'x+2/3, z+2/3, y+1/3'
   'x+3/4, -z+1/2, y+7/12'
   '-x+7/12, z+5/6, -y+3/4'
   'z+11/12, y+5/12, -x+1/2'
   '-z+5/12, -y+11/12, x+5/6'
   'z+3/4, -y+5/6, x+11/12'
   '-z+7/12, y+1/2, -x+5/12'
   '-z+1/2, y+7/12, x+3/4'
   'z+5/6, -y+3/4, -x+7/12'
   '-z+1/3, -y+2/3, -x+1/3'
   'z+2/3, y+1/3, x+2/3'
   'x+2/3, y+1/2, z+5/6'
   '-x+1/3, -y+5/6, -z+1/2'
   '-x+7/12, -y+11/12, z+2/3'
   'x+3/4, y+5/12, -z+1/3'
   '-x+5/12, y+1/3, -z+5/12'
   'x+11/12, -y+2/3, z+11/12'
   'x+5/6, -y+3/4, -z+7/12'
   '-x+1/2, y+7/12, z+3/4'
   'z+2/3, x+5/6, y+1/2'
   '-z+1/3, -x+1/2, -y+5/6'
   'z+5/6, -x+5/12, -y+11/12'
   '-z+1/2, x+11/12, y+5/12'
   '-z+7/12, -x+7/12, y+1/3'
   'z+3/4, x+3/4, -y+2/3'
   '-z+5/12, x+2/3, -y+3/4'
   'z+11/12, -x+1/3, y+7/12'
   'y+1/3, z+5/6, x+5/6'
   '-y+2/3, -z+1/2, -x+1/2'
   '-y+3/4, z+2/3, -x+5/12'
   'y+7/12, -z+1/3, x+11/12'
   'y+1/2, -z+5/12, -x+7/12'
   '-y+5/6, z+11/12, x+3/4'
   '-y+11/12, -z+7/12, x+2/3'
   'y+5/12, z+3/4, -x+1/3'
   'y+7/12, x+11/12, -z+1/3'
   '-y+3/4, -x+5/12, z+2/3'
   '-y+2/3, -x+1/2, -z+1/2'
   'y+1/3, x+5/6, z+5/6'
   'y+5/12, -x+1/3, z+3/4'
   '-y+11/12, x+2/3, -z+7/12'
   '-y+5/6, x+3/4, z+11/12'
   'y+1/2, -x+7/12, -z+5/12'
   'x+11/12, z+11/12, -y+2/3'
   '-x+5/12, -z+5/12, y+1/3'
   '-x+1/2, z+3/4, y+7/12'
   'x+5/6, -z+7/12, -y+3/4'
   '-x+1/3, -z+1/2, -y+5/6'
   'x+2/3, z+5/6, y+1/2'
   'x+3/4, -z+1/3, y+5/12'
   '-x+7/12, z+2/3, -y+11/12'
   'z+11/12, y+7/12, -x+1/3'
   '-z+5/12, -y+3/4, x+2/3'
   'z+3/4, -y+2/3, x+3/4'
   '-z+7/12, y+1/3, -x+7/12'
   '-z+1/2, y+5/12, x+11/12'
   'z+5/6, -y+11/12, -x+5/12'
   '-z+1/3, -y+5/6, -x+1/2'
   'z+2/3, y+1/2, x+5/6'
   'x+5/6, y+1/3, z+5/6'
   '-x+1/2, -y+2/3, -z+1/2'
   '-x+5/12, -y+3/4, z+2/3'
   'x+11/12, y+7/12, -z+1/3'
   '-x+7/12, y+1/2, -z+5/12'
   'x+3/4, -y+5/6, z+11/12'
   'x+2/3, -y+11/12, -z+7/12'
   '-x+1/3, y+5/12, z+3/4'
   'z+5/6, x+2/3, y+1/2'
   '-z+1/2, -x+1/3, -y+5/6'
   'z+2/3, -x+7/12, -y+11/12'
   '-z+1/3, x+3/4, y+5/12'
   '-z+5/12, -x+5/12, y+1/3'
   'z+11/12, x+11/12, -y+2/3'
   '-z+7/12, x+5/6, -y+3/4'
   'z+3/4, -x+1/2, y+7/12'
   'y+1/2, z+2/3, x+5/6'
   '-y+5/6, -z+1/3, -x+1/2'
   '-y+11/12, z+5/6, -x+5/12'
   'y+5/12, -z+1/2, x+11/12'
   'y+1/3, -z+7/12, -x+7/12'
   '-y+2/3, z+3/4, x+3/4'
   '-y+3/4, -z+5/12, x+2/3'
   'y+7/12, z+11/12, -x+1/3'
   'y+5/12, x+3/4, -z+1/3'
   '-y+11/12, -x+7/12, z+2/3'
   '-y+5/6, -x+1/3, -z+1/2'
   'y+1/2, x+2/3, z+5/6'
   'y+7/12, -x+1/2, z+3/4'
   '-y+3/4, x+5/6, -z+7/12'
   '-y+2/3, x+11/12, z+11/12'
   'y+1/3, -x+5/12, -z+5/12'
   'x+3/4, z+3/4, -y+2/3'
   '-x+7/12, -z+7/12, y+1/3'
   '-x+1/3, z+11/12, y+7/12'
   'x+2/3, -z+5/12, -y+3/4'
   '-x+1/2, -z+1/3, -y+5/6'
   'x+5/6, z+2/3, y+1/2'
   'x+11/12, -z+1/2, y+5/12'
   '-x+5/12, z+5/6, -y+11/12'
   'z+3/4, y+5/12, -x+1/3'
   '-z+7/12, -y+11/12, x+2/3'
   'z+11/12, -y+5/6, x+3/4'
   '-z+5/12, y+1/2, -x+7/12'
   '-z+1/3, y+7/12, x+11/12'
   'z+2/3, -y+3/4, -x+5/12'
   '-z+1/2, -y+2/3, -x+1/2'
   'z+5/6, y+1/3, x+5/6'
   'x+5/6, y+1/2, z+2/3'
   '-x+1/2, -y+5/6, -z+1/3'
   '-x+5/12, -y+11/12, z+5/6'
   'x+11/12, y+5/12, -z+1/2'
   '-x+7/12, y+1/3, -z+7/12'
   'x+3/4, -y+2/3, z+3/4'
   'x+2/3, -y+3/4, -z+5/12'
   '-x+1/3, y+7/12, z+11/12'
   'z+5/6, x+5/6, y+1/3'
   '-z+1/2, -x+1/2, -y+2/3'
   'z+2/3, -x+5/12, -y+3/4'
   '-z+1/3, x+11/12, y+7/12'
   '-z+5/12, -x+7/12, y+1/2'
   'z+11/12, x+3/4, -y+5/6'
   '-z+7/12, x+2/3, -y+11/12'
   'z+3/4, -x+1/3, y+5/12'
   'y+1/2, z+5/6, x+2/3'
   '-y+5/6, -z+1/2, -x+1/3'
   '-y+11/12, z+2/3, -x+7/12'
   'y+5/12, -z+1/3, x+3/4'
   'y+1/3, -z+5/12, -x+5/12'
   '-y+2/3, z+11/12, x+11/12'
   '-y+3/4, -z+7/12, x+5/6'
   'y+7/12, z+3/4, -x+1/2'
   'y+5/12, x+11/12, -z+1/2'
   '-y+11/12, -x+5/12, z+5/6'
   '-y+5/6, -x+1/2, -z+1/3'
   'y+1/2, x+5/6, z+2/3'
   'y+7/12, -x+1/3, z+11/12'
   '-y+3/4, x+2/3, -z+5/12'
   '-y+2/3, x+3/4, z+3/4'
   'y+1/3, -x+7/12, -z+7/12'
   'x+3/4, z+11/12, -y+5/6'
   '-x+7/12, -z+5/12, y+1/2'
   '-x+1/3, z+3/4, y+5/12'
   'x+2/3, -z+7/12, -y+11/12'
   '-x+1/2, -z+1/2, -y+2/3'
   'x+5/6, z+5/6, y+1/3'
   'x+11/12, -z+1/3, y+7/12'
   '-x+5/12, z+2/3, -y+3/4'
   'z+3/4, y+7/12, -x+1/2'
   '-z+7/12, -y+3/4, x+5/6'
   'z+11/12, -y+2/3, x+11/12'
   '-z+5/12, y+1/3, -x+5/12'
   '-z+1/3, y+5/12, x+3/4'
   'z+2/3, -y+11/12, -x+7/12'
   '-z+1/2, -y+5/6, -x+1/3'
   'z+5/6, y+1/2, x+2/3'
   'x+2/3, y+2/3, z'
   '-x+1/3, -y+1/3, -z'
   '-x+7/12, -y+5/12, z+1/6'
   'x+3/4, y+11/12, -z+1/6'
   '-x+5/12, y+5/6, -z+1/4'
   'x+11/12, -y+1/2, z+1/12'
   'x+5/6, -y+7/12, -z+1/12'
   '-x+1/2, y+3/4, z+1/4'
   'z, x+2/3, y+2/3'
   '-z, -x+1/3, -y+1/3'
   'z+1/6, -x+7/12, -y+5/12'
   '-z+1/6, x+3/4, y+11/12'
   '-z+1/4, -x+5/12, y+5/6'
   'z+1/12, x+11/12, -y+1/2'
   '-z+1/12, x+5/6, -y+7/12'
   'z+1/4, -x+1/2, y+3/4'
   'y+2/3, z, x+2/3'
   '-y+1/3, -z, -x+1/3'
   '-y+5/12, z+1/6, -x+7/12'
   'y+11/12, -z+1/6, x+3/4'
   'y+5/6, -z+1/4, -x+5/12'
   '-y+1/2, z+1/12, x+11/12'
   '-y+7/12, -z+1/12, x+5/6'
   'y+3/4, z+1/4, -x+1/2'
   'y+11/12, x+3/4, -z+1/6'
   '-y+5/12, -x+7/12, z+1/6'
   '-y+1/3, -x+1/3, -z'
   'y+2/3, x+2/3, z'
   'y+3/4, -x+1/2, z+1/4'
   '-y+7/12, x+5/6, -z+1/12'
   '-y+1/2, x+11/12, z+1/12'
   'y+5/6, -x+5/12, -z+1/4'
   'x+11/12, z+1/12, -y+1/2'
   '-x+5/12, -z+1/4, y+5/6'
   '-x+1/2, z+1/4, y+3/4'
   'x+5/6, -z+1/12, -y+7/12'
   '-x+1/3, -z, -y+1/3'
   'x+2/3, z, y+2/3'
   'x+3/4, -z+1/6, y+11/12'
   '-x+7/12, z+1/6, -y+5/12'
   'z+1/4, y+3/4, -x+1/2'
   '-z+1/12, -y+7/12, x+5/6'
   'z+1/12, -y+1/2, x+11/12'
   '-z+1/4, y+5/6, -x+5/12'
   '-z+1/6, y+11/12, x+3/4'
   'z+1/6, -y+5/12, -x+7/12'
   '-z, -y+1/3, -x+1/3'
   'z, y+2/3, x+2/3'
   'x+2/3, y+5/6, z+1/6'
   '-x+1/3, -y+1/2, -z+1/6'
   '-x+7/12, -y+7/12, z'
   'x+3/4, y+3/4, -z'
   '-x+5/12, y+2/3, -z+1/12'
   'x+11/12, -y+1/3, z+1/4'
   'x+5/6, -y+5/12, -z+1/4'
   '-x+1/2, y+11/12, z+1/12'
   'z, x+5/6, y+5/6'
   '-z, -x+1/2, -y+1/2'
   'z+1/6, -x+5/12, -y+7/12'
   '-z+1/6, x+11/12, y+3/4'
   '-z+1/4, -x+7/12, y+2/3'
   'z+1/12, x+3/4, -y+1/3'
   '-z+1/12, x+2/3, -y+5/12'
   'z+1/4, -x+1/3, y+11/12'
   'y+2/3, z+1/6, x+5/6'
   '-y+1/3, -z+1/6, -x+1/2'
   '-y+5/12, z, -x+5/12'
   'y+11/12, -z, x+11/12'
   'y+5/6, -z+1/12, -x+7/12'
   '-y+1/2, z+1/4, x+3/4'
   '-y+7/12, -z+1/4, x+2/3'
   'y+3/4, z+1/12, -x+1/3'
   'y+11/12, x+11/12, -z'
   '-y+5/12, -x+5/12, z'
   '-y+1/3, -x+1/2, -z+1/6'
   'y+2/3, x+5/6, z+1/6'
   'y+3/4, -x+1/3, z+1/12'
   '-y+7/12, x+2/3, -z+1/4'
   '-y+1/2, x+3/4, z+1/4'
   'y+5/6, -x+7/12, -z+1/12'
   'x+11/12, z+1/4, -y+1/3'
   '-x+5/12, -z+1/12, y+2/3'
   '-x+1/2, z+1/12, y+11/12'
   'x+5/6, -z+1/4, -y+5/12'
   '-x+1/3, -z+1/6, -y+1/2'
   'x+2/3, z+1/6, y+5/6'
   'x+3/4, -z, y+3/4'
   '-x+7/12, z, -y+7/12'
   'z+1/4, y+11/12, -x+1/3'
   '-z+1/12, -y+5/12, x+2/3'
   'z+1/12, -y+1/3, x+3/4'
   '-z+1/4, y+2/3, -x+7/12'
   '-z+1/6, y+3/4, x+11/12'
   'z+1/6, -y+7/12, -x+5/12'
   '-z, -y+1/2, -x+1/2'
   'z, y+5/6, x+5/6'
   'x+5/6, y+2/3, z+1/6'
   '-x+1/2, -y+1/3, -z+1/6'
   '-x+5/12, -y+5/12, z'
   'x+11/12, y+11/12, -z'
   '-x+7/12, y+5/6, -z+1/12'
   'x+3/4, -y+1/2, z+1/4'
   'x+2/3, -y+7/12, -z+1/4'
   '-x+1/3, y+3/4, z+1/12'
   'z+1/6, x+2/3, y+5/6'
   '-z+1/6, -x+1/3, -y+1/2'
   'z, -x+7/12, -y+7/12'
   '-z, x+3/4, y+3/4'
   '-z+1/12, -x+5/12, y+2/3'
   'z+1/4, x+11/12, -y+1/3'
   '-z+1/4, x+5/6, -y+5/12'
   'z+1/12, -x+1/2, y+11/12'
   'y+5/6, z, x+5/6'
   '-y+1/2, -z, -x+1/2'
   '-y+7/12, z+1/6, -x+5/12'
   'y+3/4, -z+1/6, x+11/12'
   'y+2/3, -z+1/4, -x+7/12'
   '-y+1/3, z+1/12, x+3/4'
   '-y+5/12, -z+1/12, x+2/3'
   'y+11/12, z+1/4, -x+1/3'
   'y+3/4, x+3/4, -z'
   '-y+7/12, -x+7/12, z'
   '-y+1/2, -x+1/3, -z+1/6'
   'y+5/6, x+2/3, z+1/6'
   'y+11/12, -x+1/2, z+1/12'
   '-y+5/12, x+5/6, -z+1/4'
   '-y+1/3, x+11/12, z+1/4'
   'y+2/3, -x+5/12, -z+1/12'
   'x+3/4, z+1/12, -y+1/3'
   '-x+7/12, -z+1/4, y+2/3'
   '-x+1/3, z+1/4, y+11/12'
   'x+2/3, -z+1/12, -y+5/12'
   '-x+1/2, -z, -y+1/2'
   'x+5/6, z, y+5/6'
   'x+11/12, -z+1/6, y+3/4'
   '-x+5/12, z+1/6, -y+7/12'
   'z+1/12, y+3/4, -x+1/3'
   '-z+1/4, -y+7/12, x+2/3'
   'z+1/4, -y+1/2, x+3/4'
   '-z+1/12, y+5/6, -x+7/12'
   '-z, y+11/12, x+11/12'
   'z, -y+5/12, -x+5/12'
   '-z+1/6, -y+1/3, -x+1/2'
   'z+1/6, y+2/3, x+5/6'
   'x+5/6, y+5/6, z'
   '-x+1/2, -y+1/2, -z'
   '-x+5/12, -y+7/12, z+1/6'
   'x+11/12, y+3/4, -z+1/6'
   '-x+7/12, y+2/3, -z+1/4'
   'x+3/4, -y+1/3, z+1/12'
   'x+2/3, -y+5/12, -z+1/12'
   '-x+1/3, y+11/12, z+1/4'
   'z+1/6, x+5/6, y+2/3'
   '-z+1/6, -x+1/2, -y+1/3'
   'z, -x+5/12, -y+5/12'
   '-z, x+11/12, y+11/12'
   '-z+1/12, -x+7/12, y+5/6'
   'z+1/4, x+3/4, -y+1/2'
   '-z+1/4, x+2/3, -y+7/12'
   'z+1/12, -x+1/3, y+3/4'
   'y+5/6, z+1/6, x+2/3'
   '-y+1/2, -z+1/6, -x+1/3'
   '-y+7/12, z, -x+7/12'
   'y+3/4, -z, x+3/4'
   'y+2/3, -z+1/12, -x+5/12'
   '-y+1/3, z+1/4, x+11/12'
   '-y+5/12, -z+1/4, x+5/6'
   'y+11/12, z+1/12, -x+1/2'
   'y+3/4, x+11/12, -z+1/6'
   '-y+7/12, -x+5/12, z+1/6'
   '-y+1/2, -x+1/2, -z'
   'y+5/6, x+5/6, z'
   'y+11/12, -x+1/3, z+1/4'
   '-y+5/12, x+2/3, -z+1/12'
   '-y+1/3, x+3/4, z+1/12'
   'y+2/3, -x+7/12, -z+1/4'
   'x+3/4, z+1/4, -y+1/2'
   '-x+7/12, -z+1/12, y+5/6'
   '-x+1/3, z+1/12, y+3/4'
   'x+2/3, -z+1/4, -y+7/12'
   '-x+1/2, -z+1/6, -y+1/3'
   'x+5/6, z+1/6, y+2/3'
   'x+11/12, -z, y+11/12'
   '-x+5/12, z, -y+5/12'
   'z+1/12, y+11/12, -x+1/2'
   '-z+1/4, -y+5/12, x+5/6'
   'z+1/4, -y+1/3, x+11/12'
   '-z+1/12, y+2/3, -x+5/12'
   '-z, y+3/4, x+3/4'
   'z, -y+7/12, -x+7/12'
   '-z+1/6, -y+1/2, -x+1/3'
   'z+1/6, y+5/6, x+2/3'
   'x+2/3, y+2/3, z+1/3'
   '-x+1/3, -y+1/3, -z+2/3'
   '-x+7/12, -y+5/12, z+1/2'
   'x+3/4, y+11/12, -z+5/6'
   '-x+5/12, y+5/6, -z+11/12'
   'x+11/12, -y+1/2, z+5/12'
   'x+5/6, -y+7/12, -z+3/4'
   '-x+1/2, y+3/4, z+7/12'
   'z+1/3, x+2/3, y+2/3'
   '-z+2/3, -x+1/3, -y+1/3'
   'z+1/2, -x+7/12, -y+5/12'
   '-z+5/6, x+3/4, y+11/12'
   '-z+11/12, -x+5/12, y+5/6'
   'z+5/12, x+11/12, -y+1/2'
   '-z+3/4, x+5/6, -y+7/12'
   'z+7/12, -x+1/2, y+3/4'
   'y+2/3, z+1/3, x+2/3'
   '-y+1/3, -z+2/3, -x+1/3'
   '-y+5/12, z+1/2, -x+7/12'
   'y+11/12, -z+5/6, x+3/4'
   'y+5/6, -z+11/12, -x+5/12'
   '-y+1/2, z+5/12, x+11/12'
   '-y+7/12, -z+3/4, x+5/6'
   'y+3/4, z+7/12, -x+1/2'
   'y+11/12, x+3/4, -z+5/6'
   '-y+5/12, -x+7/12, z+1/2'
   '-y+1/3, -x+1/3, -z+2/3'
   'y+2/3, x+2/3, z+1/3'
   'y+3/4, -x+1/2, z+7/12'
   '-y+7/12, x+5/6, -z+3/4'
   '-y+1/2, x+11/12, z+5/12'
   'y+5/6, -x+5/12, -z+11/12'
   'x+11/12, z+5/12, -y+1/2'
   '-x+5/12, -z+11/12, y+5/6'
   '-x+1/2, z+7/12, y+3/4'
   'x+5/6, -z+3/4, -y+7/12'
   '-x+1/3, -z+2/3, -y+1/3'
   'x+2/3, z+1/3, y+2/3'
   'x+3/4, -z+5/6, y+11/12'
   '-x+7/12, z+1/2, -y+5/12'
   'z+7/12, y+3/4, -x+1/2'
   '-z+3/4, -y+7/12, x+5/6'
   'z+5/12, -y+1/2, x+11/12'
   '-z+11/12, y+5/6, -x+5/12'
   '-z+5/6, y+11/12, x+3/4'
   'z+1/2, -y+5/12, -x+7/12'
   '-z+2/3, -y+1/3, -x+1/3'
   'z+1/3, y+2/3, x+2/3'
   'x+2/3, y+5/6, z+1/2'
   '-x+1/3, -y+1/2, -z+5/6'
   '-x+7/12, -y+7/12, z+1/3'
   'x+3/4, y+3/4, -z+2/3'
   '-x+5/12, y+2/3, -z+3/4'
   'x+11/12, -y+1/3, z+7/12'
   'x+5/6, -y+5/12, -z+11/12'
   '-x+1/2, y+11/12, z+5/12'
   'z+1/3, x+5/6, y+5/6'
   '-z+2/3, -x+1/2, -y+1/2'
   'z+1/2, -x+5/12, -y+7/12'
   '-z+5/6, x+11/12, y+3/4'
   '-z+11/12, -x+7/12, y+2/3'
   'z+5/12, x+3/4, -y+1/3'
   '-z+3/4, x+2/3, -y+5/12'
   'z+7/12, -x+1/3, y+11/12'
   'y+2/3, z+1/2, x+5/6'
   '-y+1/3, -z+5/6, -x+1/2'
   '-y+5/12, z+1/3, -x+5/12'
   'y+11/12, -z+2/3, x+11/12'
   'y+5/6, -z+3/4, -x+7/12'
   '-y+1/2, z+7/12, x+3/4'
   '-y+7/12, -z+11/12, x+2/3'
   'y+3/4, z+5/12, -x+1/3'
   'y+11/12, x+11/12, -z+2/3'
   '-y+5/12, -x+5/12, z+1/3'
   '-y+1/3, -x+1/2, -z+5/6'
   'y+2/3, x+5/6, z+1/2'
   'y+3/4, -x+1/3, z+5/12'
   '-y+7/12, x+2/3, -z+11/12'
   '-y+1/2, x+3/4, z+7/12'
   'y+5/6, -x+7/12, -z+3/4'
   'x+11/12, z+7/12, -y+1/3'
   '-x+5/12, -z+3/4, y+2/3'
   '-x+1/2, z+5/12, y+11/12'
   'x+5/6, -z+11/12, -y+5/12'
   '-x+1/3, -z+5/6, -y+1/2'
   'x+2/3, z+1/2, y+5/6'
   'x+3/4, -z+2/3, y+3/4'
   '-x+7/12, z+1/3, -y+7/12'
   'z+7/12, y+11/12, -x+1/3'
   '-z+3/4, -y+5/12, x+2/3'
   'z+5/12, -y+1/3, x+3/4'
   '-z+11/12, y+2/3, -x+7/12'
   '-z+5/6, y+3/4, x+11/12'
   'z+1/2, -y+7/12, -x+5/12'
   '-z+2/3, -y+1/2, -x+1/2'
   'z+1/3, y+5/6, x+5/6'
   'x+5/6, y+2/3, z+1/2'
   '-x+1/2, -y+1/3, -z+5/6'
   '-x+5/12, -y+5/12, z+1/3'
   'x+11/12, y+11/12, -z+2/3'
   '-x+7/12, y+5/6, -z+3/4'
   'x+3/4, -y+1/2, z+7/12'
   'x+2/3, -y+7/12, -z+11/12'
   '-x+1/3, y+3/4, z+5/12'
   'z+1/2, x+2/3, y+5/6'
   '-z+5/6, -x+1/3, -y+1/2'
   'z+1/3, -x+7/12, -y+7/12'
   '-z+2/3, x+3/4, y+3/4'
   '-z+3/4, -x+5/12, y+2/3'
   'z+7/12, x+11/12, -y+1/3'
   '-z+11/12, x+5/6, -y+5/12'
   'z+5/12, -x+1/2, y+11/12'
   'y+5/6, z+1/3, x+5/6'
   '-y+1/2, -z+2/3, -x+1/2'
   '-y+7/12, z+1/2, -x+5/12'
   'y+3/4, -z+5/6, x+11/12'
   'y+2/3, -z+11/12, -x+7/12'
   '-y+1/3, z+5/12, x+3/4'
   '-y+5/12, -z+3/4, x+2/3'
   'y+11/12, z+7/12, -x+1/3'
   'y+3/4, x+3/4, -z+2/3'
   '-y+7/12, -x+7/12, z+1/3'
   '-y+1/2, -x+1/3, -z+5/6'
   'y+5/6, x+2/3, z+1/2'
   'y+11/12, -x+1/2, z+5/12'
   '-y+5/12, x+5/6, -z+11/12'
   '-y+1/3, x+11/12, z+7/12'
   'y+2/3, -x+5/12, -z+3/4'
   'x+3/4, z+5/12, -y+1/3'
   '-x+7/12, -z+11/12, y+2/3'
   '-x+1/3, z+7/12, y+11/12'
   'x+2/3, -z+3/4, -y+5/12'
   '-x+1/2, -z+2/3, -y+1/2'
   'x+5/6, z+1/3, y+5/6'
   'x+11/12, -z+5/6, y+3/4'
   '-x+5/12, z+1/2, -y+7/12'
   'z+5/12, y+3/4, -x+1/3'
   '-z+11/12, -y+7/12, x+2/3'
   'z+7/12, -y+1/2, x+3/4'
   '-z+3/4, y+5/6, -x+7/12'
   '-z+2/3, y+11/12, x+11/12'
   'z+1/3, -y+5/12, -x+5/12'
   '-z+5/6, -y+1/3, -x+1/2'
   'z+1/2, y+2/3, x+5/6'
   'x+5/6, y+5/6, z+1/3'
   '-x+1/2, -y+1/2, -z+2/3'
   '-x+5/12, -y+7/12, z+1/2'
   'x+11/12, y+3/4, -z+5/6'
   '-x+7/12, y+2/3, -z+11/12'
   'x+3/4, -y+1/3, z+5/12'
   'x+2/3, -y+5/12, -z+3/4'
   '-x+1/3, y+11/12, z+7/12'
   'z+1/2, x+5/6, y+2/3'
   '-z+5/6, -x+1/2, -y+1/3'
   'z+1/3, -x+5/12, -y+5/12'
   '-z+2/3, x+11/12, y+11/12'
   '-z+3/4, -x+7/12, y+5/6'
   'z+7/12, x+3/4, -y+1/2'
   '-z+11/12, x+2/3, -y+7/12'
   'z+5/12, -x+1/3, y+3/4'
   'y+5/6, z+1/2, x+2/3'
   '-y+1/2, -z+5/6, -x+1/3'
   '-y+7/12, z+1/3, -x+7/12'
   'y+3/4, -z+2/3, x+3/4'
   'y+2/3, -z+3/4, -x+5/12'
   '-y+1/3, z+7/12, x+11/12'
   '-y+5/12, -z+11/12, x+5/6'
   'y+11/12, z+5/12, -x+1/2'
   'y+3/4, x+11/12, -z+5/6'
   '-y+7/12, -x+5/12, z+1/2'
   '-y+1/2, -x+1/2, -z+2/3'
   'y+5/6, x+5/6, z+1/3'
   'y+11/12, -x+1/3, z+7/12'
   '-y+5/12, x+2/3, -z+3/4'
   '-y+1/3, x+3/4, z+5/12'
   'y+2/3, -x+7/12, -z+11/12'
   'x+3/4, z+7/12, -y+1/2'
   '-x+7/12, -z+3/4, y+5/6'
   '-x+1/3, z+5/12, y+3/4'
   'x+2/3, -z+11/12, -y+7/12'
   '-x+1/2, -z+5/6, -y+1/3'
   'x+5/6, z+1/2, y+2/3'
   'x+11/12, -z+2/3, y+11/12'
   '-x+5/12, z+1/3, -y+5/12'
   'z+5/12, y+11/12, -x+1/2'
   '-z+11/12, -y+5/12, x+5/6'
   'z+7/12, -y+1/3, x+11/12'
   '-z+3/4, y+2/3, -x+5/12'
   '-z+2/3, y+3/4, x+3/4'
   'z+1/3, -y+7/12, -x+7/12'
   '-z+5/6, -y+1/2, -x+1/3'
   'z+1/2, y+5/6, x+2/3'
   'x+2/3, y+2/3, z+2/3'
   '-x+1/3, -y+1/3, -z+1/3'
   '-x+7/12, -y+5/12, z+5/6'
   'x+3/4, y+11/12, -z+1/2'
   '-x+5/12, y+5/6, -z+7/12'
   'x+11/12, -y+1/2, z+3/4'
   'x+5/6, -y+7/12, -z+5/12'
   '-x+1/2, y+3/4, z+11/12'
   'z+2/3, x+2/3, y+2/3'
   '-z+1/3, -x+1/3, -y+1/3'
   'z+5/6, -x+7/12, -y+5/12'
   '-z+1/2, x+3/4, y+11/12'
   '-z+7/12, -x+5/12, y+5/6'
   'z+3/4, x+11/12, -y+1/2'
   '-z+5/12, x+5/6, -y+7/12'
   'z+11/12, -x+1/2, y+3/4'
   'y+2/3, z+2/3, x+2/3'
   '-y+1/3, -z+1/3, -x+1/3'
   '-y+5/12, z+5/6, -x+7/12'
   'y+11/12, -z+1/2, x+3/4'
   'y+5/6, -z+7/12, -x+5/12'
   '-y+1/2, z+3/4, x+11/12'
   '-y+7/12, -z+5/12, x+5/6'
   'y+3/4, z+11/12, -x+1/2'
   'y+11/12, x+3/4, -z+1/2'
   '-y+5/12, -x+7/12, z+5/6'
   '-y+1/3, -x+1/3, -z+1/3'
   'y+2/3, x+2/3, z+2/3'
   'y+3/4, -x+1/2, z+11/12'
   '-y+7/12, x+5/6, -z+5/12'
   '-y+1/2, x+11/12, z+3/4'
   'y+5/6, -x+5/12, -z+7/12'
   'x+11/12, z+3/4, -y+1/2'
   '-x+5/12, -z+7/12, y+5/6'
   '-x+1/2, z+11/12, y+3/4'
   'x+5/6, -z+5/12, -y+7/12'
   '-x+1/3, -z+1/3, -y+1/3'
   'x+2/3, z+2/3, y+2/3'
   'x+3/4, -z+1/2, y+11/12'
   '-x+7/12, z+5/6, -y+5/12'
   'z+11/12, y+3/4, -x+1/2'
   '-z+5/12, -y+7/12, x+5/6'
   'z+3/4, -y+1/2, x+11/12'
   '-z+7/12, y+5/6, -x+5/12'
   '-z+1/2, y+11/12, x+3/4'
   'z+5/6, -y+5/12, -x+7/12'
   '-z+1/3, -y+1/3, -x+1/3'
   'z+2/3, y+2/3, x+2/3'
   'x+2/3, y+5/6, z+5/6'
   '-x+1/3, -y+1/2, -z+1/2'
   '-x+7/12, -y+7/12, z+2/3'
   'x+3/4, y+3/4, -z+1/3'
   '-x+5/12, y+2/3, -z+5/12'
   'x+11/12, -y+1/3, z+11/12'
   'x+5/6, -y+5/12, -z+7/12'
   '-x+1/2, y+11/12, z+3/4'
   'z+2/3, x+5/6, y+5/6'
   '-z+1/3, -x+1/2, -y+1/2'
   'z+5/6, -x+5/12, -y+7/12'
   '-z+1/2, x+11/12, y+3/4'
   '-z+7/12, -x+7/12, y+2/3'
   'z+3/4, x+3/4, -y+1/3'
   '-z+5/12, x+2/3, -y+5/12'
   'z+11/12, -x+1/3, y+11/12'
   'y+2/3, z+5/6, x+5/6'
   '-y+1/3, -z+1/2, -x+1/2'
   '-y+5/12, z+2/3, -x+5/12'
   'y+11/12, -z+1/3, x+11/12'
   'y+5/6, -z+5/12, -x+7/12'
   '-y+1/2, z+11/12, x+3/4'
   '-y+7/12, -z+7/12, x+2/3'
   'y+3/4, z+3/4, -x+1/3'
   'y+11/12, x+11/12, -z+1/3'
   '-y+5/12, -x+5/12, z+2/3'
   '-y+1/3, -x+1/2, -z+1/2'
   'y+2/3, x+5/6, z+5/6'
   'y+3/4, -x+1/3, z+3/4'
   '-y+7/12, x+2/3, -z+7/12'
   '-y+1/2, x+3/4, z+11/12'
   'y+5/6, -x+7/12, -z+5/12'
   'x+11/12, z+11/12, -y+1/3'
   '-x+5/12, -z+5/12, y+2/3'
   '-x+1/2, z+3/4, y+11/12'
   'x+5/6, -z+7/12, -y+5/12'
   '-x+1/3, -z+1/2, -y+1/2'
   'x+2/3, z+5/6, y+5/6'
   'x+3/4, -z+1/3, y+3/4'
   '-x+7/12, z+2/3, -y+7/12'
   'z+11/12, y+11/12, -x+1/3'
   '-z+5/12, -y+5/12, x+2/3'
   'z+3/4, -y+1/3, x+3/4'
   '-z+7/12, y+2/3, -x+7/12'
   '-z+1/2, y+3/4, x+11/12'
   'z+5/6, -y+7/12, -x+5/12'
   '-z+1/3, -y+1/2, -x+1/2'
   'z+2/3, y+5/6, x+5/6'
   'x+5/6, y+2/3, z+5/6'
   '-x+1/2, -y+1/3, -z+1/2'
   '-x+5/12, -y+5/12, z+2/3'
   'x+11/12, y+11/12, -z+1/3'
   '-x+7/12, y+5/6, -z+5/12'
   'x+3/4, -y+1/2, z+11/12'
   'x+2/3, -y+7/12, -z+7/12'
   '-x+1/3, y+3/4, z+3/4'
   'z+5/6, x+2/3, y+5/6'
   '-z+1/2, -x+1/3, -y+1/2'
   'z+2/3, -x+7/12, -y+7/12'
   '-z+1/3, x+3/4, y+3/4'
   '-z+5/12, -x+5/12, y+2/3'
   'z+11/12, x+11/12, -y+1/3'
   '-z+7/12, x+5/6, -y+5/12'
   'z+3/4, -x+1/2, y+11/12'
   'y+5/6, z+2/3, x+5/6'
   '-y+1/2, -z+1/3, -x+1/2'
   '-y+7/12, z+5/6, -x+5/12'
   'y+3/4, -z+1/2, x+11/12'
   'y+2/3, -z+7/12, -x+7/12'
   '-y+1/3, z+3/4, x+3/4'
   '-y+5/12, -z+5/12, x+2/3'
   'y+11/12, z+11/12, -x+1/3'
   'y+3/4, x+3/4, -z+1/3'
   '-y+7/12, -x+7/12, z+2/3'
   '-y+1/2, -x+1/3, -z+1/2'
   'y+5/6, x+2/3, z+5/6'
   'y+11/12, -x+1/2, z+3/4'
   '-y+5/12, x+5/6, -z+7/12'
   '-y+1/3, x+11/12, z+11/12'
   'y+2/3, -x+5/12, -z+5/12'
   'x+3/4, z+3/4, -y+1/3'
   '-x+7/12, -z+7/12, y+2/3'
   '-x+1/3, z+11/12, y+11/12'
   'x+2/3, -z+5/12, -y+5/12'
   '-x+1/2, -z+1/3, -y+1/2'
   'x+5/6, z+2/3, y+5/6'
   'x+11/12, -z+1/2, y+3/4'
   '-x+5/12, z+5/6, -y+7/12'
   'z+3/4, y+3/4, -x+1/3'
   '-z+7/12, -y+7/12, x+2/3'
   'z+11/12, -y+1/2, x+3/4'
   '-z+5/12, y+5/6, -x+7/12'
   '-z+1/3, y+11/12, x+11/12'
   'z+2/3, -y+5/12, -x+5/12'
   '-z+1/2, -y+1/3, -x+1/2'
   'z+5/6, y+2/3, x+5/6'
   'x+5/6, y+5/6, z+2/3'
   '-x+1/2, -y+1/2, -z+1/3'
   '-x+5/12, -y+7/12, z+5/6'
   'x+11/12, y+3/4, -z+1/2'
   '-x+7/12, y+2/3, -z+7/12'
   'x+3/4, -y+1/3, z+3/4'
   'x+2/3, -y+5/12, -z+5/12'
   '-x+1/3, y+11/12, z+11/12'
   'z+5/6, x+5/6, y+2/3'
   '-z+1/2, -x+1/2, -y+1/3'
   'z+2/3, -x+5/12, -y+5/12'
   '-z+1/3, x+11/12, y+11/12'
   '-z+5/12, -x+7/12, y+5/6'
   'z+11/12, x+3/4, -y+1/2'
   '-z+7/12, x+2/3, -y+7/12'
   'z+3/4, -x+1/3, y+3/4'
   'y+5/6, z+5/6, x+2/3'
   '-y+1/2, -z+1/2, -x+1/3'
   '-y+7/12, z+2/3, -x+7/12'
   'y+3/4, -z+1/3, x+3/4'
   'y+2/3, -z+5/12, -x+5/12'
   '-y+1/3, z+11/12, x+11/12'
   '-y+5/12, -z+7/12, x+5/6'
   'y+11/12, z+3/4, -x+1/2'
   'y+3/4, x+11/12, -z+1/2'
   '-y+7/12, -x+5/12, z+5/6'
   '-y+1/2, -x+1/2, -z+1/3'
   'y+5/6, x+5/6, z+2/3'
   'y+11/12, -x+1/3, z+11/12'
   '-y+5/12, x+2/3, -z+5/12'
   '-y+1/3, x+3/4, z+3/4'
   'y+2/3, -x+7/12, -z+7/12'
   'x+3/4, z+11/12, -y+1/2'
   '-x+7/12, -z+5/12, y+5/6'
   '-x+1/3, z+3/4, y+3/4'
   'x+2/3, -z+7/12, -y+7/12'
   '-x+1/2, -z+1/2, -y+1/3'
   'x+5/6, z+5/6, y+2/3'
   'x+11/12, -z+1/3, y+11/12'
   '-x+5/12, z+2/3, -y+5/12'
   'z+3/4, y+11/12, -x+1/2'
   '-z+7/12, -y+5/12, x+5/6'
   'z+11/12, -y+1/3, x+11/12'
   '-z+5/12, y+2/3, -x+5/12'
   '-z+1/3, y+3/4, x+3/4'
   'z+2/3, -y+7/12, -x+7/12'
   '-z+1/2, -y+1/2, -x+1/3'
   'z+5/6, y+5/6, x+2/3'

loop_
   _atom_site_label
   _atom_site_occupancy
   _atom_site_fract_x
   _atom_site_fract_y
   _atom_site_fract_z
   _atom_site_adp_type
   _atom_site_B_iso_or_equiv
   _atom_site_type_symbol
   Li1        1.0     0.041667     0.041667     0.041667    Biso  0.500000 Li
   Mn1        1.0     0.166667     0.166667     0.166667    Biso  0.300000 Mn
   O1         1.0     0.0870(7)    0.0870(7)    0.0870(7)   Biso  0.400000 O
